
 Created by Python create_sdf_string function

 29  0  0  0  0  0  0  0  0  0999 V2000
    0.0000    0.0000    0.0000 C   0  0  0  0  0  0  0  0  0  0  0  0
   -1.6996    1.5870    0.4484 C   0  0  0  0  0  0  0  0  0  0  0  0
    0.6870    1.3329    1.2652 C   0  0  0  0  0  0  0  0  0  0  0  0
   -1.0156   -0.7239   -0.4005 C   0  0  0  0  0  0  0  0  0  0  0  0
   -1.4142   -0.4509    0.3502 C   0  0  0  0  0  0  0  0  0  0  0  0
    1.8371   -1.7802   -0.7796 C   0  0  0  0  0  0  0  0  0  0  0  0
   -1.2003   -1.6856   -1.9926 C   0  0  0  0  0  0  0  0  0  0  0  0
   -1.5612    1.1126    0.6521 C   0  0  0  0  0  0  0  0  0  0  0  0
    0.1750    1.4014    1.0524 C   0  0  0  0  0  0  0  0  0  0  0  0
   -0.3864    1.5148    0.1770 C   0  0  0  0  0  0  0  0  0  0  0  0
    1.5719   -1.4706   -0.4244 C   0  0  0  0  0  0  0  0  0  0  0  0
    0.2091    0.3329   -0.0002 C   0  0  0  0  0  0  0  0  0  0  0  0
   -0.5624    0.7676    0.2916 C   0  0  0  0  0  0  0  0  0  0  0  0
   -1.5745   -0.1035    1.6374 C   0  0  0  0  0  0  0  0  0  0  0  0
    0.0576    1.1782    1.5832 C   0  0  0  0  0  0  0  0  0  0  0  0
   -0.0924   -0.4613    0.5430 C   0  0  0  0  0  0  0  0  0  0  0  0
    0.1898    0.7754   -0.0665 C   0  0  0  0  0  0  0  0  0  0  0  0
    0.1398    0.1538   -1.1802 C   0  0  0  0  0  0  0  0  0  0  0  0
   -0.1975   -2.4532    0.7683 C   0  0  0  0  0  0  0  0  0  0  0  0
   -1.1113    1.0495   -0.1806 C   0  0  0  0  0  0  0  0  0  0  0  0
    0.9088   -0.5756    0.2541 C   0  0  0  0  0  0  0  0  0  0  0  0
   -0.3705   -0.2851    0.9417 C   0  0  0  0  0  0  0  0  0  0  0  0
    1.8118    0.7426    0.0141 C   0  0  0  0  0  0  0  0  0  0  0  0
    0.8142    1.9902   -0.8109 C   0  0  0  0  0  0  0  0  0  0  0  0
   -1.9754    0.3316    0.2607 C   0  0  0  0  0  0  0  0  0  0  0  0
   -1.5155   -1.5069    0.0356 C   0  0  0  0  0  0  0  0  0  0  0  0
   -2.3279    0.1191   -0.7608 C   0  0  0  0  0  0  0  0  0  0  0  0
   -0.5684   -1.2672    0.5152 C   0  0  0  0  0  0  0  0  0  0  0  0
   -0.6911   -0.4050    1.2887 C   0  0  0  0  0  0  0  0  0  0  0  0
M  END
$$$$

 Created by Python create_sdf_string function

 29 28  0  0  0  0  0  0  0  0999 V2000
    8.2823   -7.9991   15.8718 Se  0  0  0  0  0  0  0  0  0  0  0  0
    6.3814   -8.3555   18.6397 F   0  0  0  0  0  0  0  0  0  0  0  0
    7.2472   -8.4938   15.6322 S   0  0  0  0  0  0  0  0  0  0  0  0
    8.4620   -6.9107   16.9551 N   0  0  0  0  0  0  0  0  0  0  0  0
    8.2051   -7.2646   16.5467 P   0  0  0  0  0  0  0  0  0  0  0  0
    8.9245   -7.9477   16.2140 C   0  0  0  0  0  0  0  0  0  0  0  0
    7.9528   -8.4833   17.1941 S   0  0  0  0  0  0  0  0  0  0  0  0
    7.8099   -7.9600   16.5777 F   0  0  0  0  0  0  0  0  0  0  0  0
    6.2637   -7.8155   17.3336 N   0  0  0  0  0  0  0  0  0  0  0  0
    8.3573   -5.9261   16.9348 C   0  0  0  0  0  0  0  0  0  0  0  0
    8.1689  -10.4543   19.2788 S   0  0  0  0  0  0  0  0  0  0  0  0
    8.1694   -7.7694   17.1699 N   0  0  0  0  0  0  0  0  0  0  0  0
    7.0509   -6.7988   15.7667 He  0  0  0  0  0  0  0  0  0  0  0  0
    8.0679   -8.4955   17.3652 He  0  0  0  0  0  0  0  0  0  0  0  0
    7.1471   -8.4125   17.6107 He  0  0  0  0  0  0  0  0  0  0  0  0
    8.0949   -8.0425   17.6666 He  0  0  0  0  0  0  0  0  0  0  0  0
    8.0365   -7.6656   16.0178 He  0  0  0  0  0  0  0  0  0  0  0  0
    7.4240   -8.8645   16.6076 He  0  0  0  0  0  0  0  0  0  0  0  0
    7.7664   -8.7889   17.6245 He  0  0  0  0  0  0  0  0  0  0  0  0
    8.1369   -9.3129   16.1764 He  0  0  0  0  0  0  0  0  0  0  0  0
    7.0347   -6.6521   16.7542 He  0  0  0  0  0  0  0  0  0  0  0  0
    9.6593   -7.8467   17.5315 He  0  0  0  0  0  0  0  0  0  0  0  0
    8.2964   -7.4676   18.3707 He  0  0  0  0  0  0  0  0  0  0  0  0
    6.6413   -7.9909   16.8207 He  0  0  0  0  0  0  0  0  0  0  0  0
    8.8234   -8.4647   17.1733 He  0  0  0  0  0  0  0  0  0  0  0  0
    7.5441   -8.4208   15.6584 He  0  0  0  0  0  0  0  0  0  0  0  0
    7.7413   -6.1896   17.7778 He  0  0  0  0  0  0  0  0  0  0  0  0
    7.2549   -7.5136   17.6676 He  0  0  0  0  0  0  0  0  0  0  0  0
    7.2352   -8.7300   17.5440 He  0  0  0  0  0  0  0  0  0  0  0  0
  1  3  4  0
  1  4  1  0
  1 11  4  0
  2  4  2  0
  2  5  3  0
  2  9  2  0
  2 10  2  0
  2 12  4  0
  3  4  1  0
  3  8  1  0
  3 11  3  0
  4  5  2  0
  4  6  3  0
  4  7  3  0
  4  8  4  0
  4  9  1  0
  4 11  4  0
  5  9  4  0
  6  7  2  0
  6  8  1  0
  6  9  4  0
  6 10  3  0
  6 12  4  0
  8  9  4  0
  8 10  4  0
  8 11  3  0
 10 12  3  0
 11 12  3  0
M  END
$$$$

 Created by Python create_sdf_string function

 29  1  0  0  0  0  0  0  0  0999 V2000
    8.4626   -7.8673   15.0760 F   0  0  0  0  0  0  0  0  0  0  0  0
    5.9851   -8.3941   18.6961 F   0  0  0  0  0  0  0  0  0  0  0  0
    6.6167   -8.4219   15.2579 F   0  0  0  0  0  0  0  0  0  0  0  0
    6.8627   -6.3683   15.3657 F   0  0  0  0  0  0  0  0  0  0  0  0
    8.5415   -8.4871   17.7096 F   0  0  0  0  0  0  0  0  0  0  0  0
    6.0790   -8.4151   18.1351 F   0  0  0  0  0  0  0  0  0  0  0  0
    9.3386   -5.6299   17.0040 F   0  0  0  0  0  0  0  0  0  0  0  0
    8.6600   -5.9752   16.2151 F   0  0  0  0  0  0  0  0  0  0  0  0
    9.1344   -7.4608   15.8998 F   0  0  0  0  0  0  0  0  0  0  0  0
    8.7791   -7.8354   18.3064 F   0  0  0  0  0  0  0  0  0  0  0  0
    7.9327   -8.4369   17.3956 F   0  0  0  0  0  0  0  0  0  0  0  0
    8.2116   -7.3362   15.2122 F   0  0  0  0  0  0  0  0  0  0  0  0
    6.5468   -9.3288   16.6493 F   0  0  0  0  0  0  0  0  0  0  0  0
    7.5443   -8.7314   18.1250 F   0  0  0  0  0  0  0  0  0  0  0  0
    7.5111   -9.3551   15.3115 F   0  0  0  0  0  0  0  0  0  0  0  0
    7.6439   -7.5429   16.1364 F   0  0  0  0  0  0  0  0  0  0  0  0
    5.1986   -7.7978   17.4014 F   0  0  0  0  0  0  0  0  0  0  0  0
    7.0154   -6.1861   16.3773 F   0  0  0  0  0  0  0  0  0  0  0  0
   10.1994   -7.2513   18.2533 F   0  0  0  0  0  0  0  0  0  0  0  0
    9.5037   -6.5234   18.9515 F   0  0  0  0  0  0  0  0  0  0  0  0
    9.1009   -4.8839   16.6421 F   0  0  0  0  0  0  0  0  0  0  0  0
    5.2151   -8.1063   16.6244 F   0  0  0  0  0  0  0  0  0  0  0  0
    9.4769   -8.1885   17.6789 F   0  0  0  0  0  0  0  0  0  0  0  0
    7.1433   -8.5798   15.3305 F   0  0  0  0  0  0  0  0  0  0  0  0
    9.1247   -5.1577   18.3239 F   0  0  0  0  0  0  0  0  0  0  0  0
    8.1877   -8.9221   19.1606 F   0  0  0  0  0  0  0  0  0  0  0  0
    8.7971   -7.0363   17.4959 F   0  0  0  0  0  0  0  0  0  0  0  0
    6.8718   -6.9998   18.0635 F   0  0  0  0  0  0  0  0  0  0  0  0
    6.0301   -9.2841   17.8333 F   0  0  0  0  0  0  0  0  0  0  0  0
  3 24  1  0
M  END
$$$$

 Created by Python create_sdf_string function

 29 35  0  0  0  0  0  0  0  0999 V2000
    5.6564   -8.1101   17.5793 S   0  0  0  0  0  0  0  0  0  0  0  0
    5.1821   -8.4178   14.7074 C   0  0  0  0  0  0  0  0  0  0  0  0
    9.6395   -4.5380   17.0018 S   0  0  0  0  0  0  0  0  0  0  0  0
    8.2017   -5.2999   17.7065 O   0  0  0  0  0  0  0  0  0  0  0  0
    6.6384  -10.0302   16.6086 N   0  0  0  0  0  0  0  0  0  0  0  0
    8.6642   -7.2526   17.3428 N   0  0  0  0  0  0  0  0  0  0  0  0
    6.8447  -10.6415   17.2655 P   0  0  0  0  0  0  0  0  0  0  0  0
    8.0129   -8.1877   20.0549 N   0  0  0  0  0  0  0  0  0  0  0  0
    6.7618   -8.8399   14.7203 O   0  0  0  0  0  0  0  0  0  0  0  0
    8.9976   -5.3656   20.4445 C   0  0  0  0  0  0  0  0  0  0  0  0
    8.2759   -5.3461   19.7946 F   0  0  0  0  0  0  0  0  0  0  0  0
    9.6591   -8.5097   16.9347 O   0  0  0  0  0  0  0  0  0  0  0  0
    9.1417   -7.4663   18.5233 C   0  0  0  0  0  0  0  0  0  0  0  0
    8.9063   -7.5133   17.3506 F   0  0  0  0  0  0  0  0  0  0  0  0
    4.4707   -9.8939   18.6690 C   0  0  0  0  0  0  0  0  0  0  0  0
    7.5584  -10.5453   15.1704 He  0  0  0  0  0  0  0  0  0  0  0  0
    6.2276   -5.3663   14.9350 He  0  0  0  0  0  0  0  0  0  0  0  0
    8.7912   -8.1870   17.4198 He  0  0  0  0  0  0  0  0  0  0  0  0
    6.5371   -9.5369   16.5907 He  0  0  0  0  0  0  0  0  0  0  0  0
    7.7643   -6.0864   16.8458 He  0  0  0  0  0  0  0  0  0  0  0  0
    6.6970  -10.0670   18.5185 He  0  0  0  0  0  0  0  0  0  0  0  0
    8.0180   -7.6048   16.7089 He  0  0  0  0  0  0  0  0  0  0  0  0
    2.9940   -6.7020   18.3406 He  0  0  0  0  0  0  0  0  0  0  0  0
    8.5142   -7.1386   16.8864 He  0  0  0  0  0  0  0  0  0  0  0  0
   10.0255   -2.4994   17.2144 He  0  0  0  0  0  0  0  0  0  0  0  0
    4.7827   -8.7514   16.2174 He  0  0  0  0  0  0  0  0  0  0  0  0
    7.1969   -7.9174   14.5752 He  0  0  0  0  0  0  0  0  0  0  0  0
    8.0442   -9.1456   18.3855 He  0  0  0  0  0  0  0  0  0  0  0  0
    6.5634   -5.9765   16.8958 He  0  0  0  0  0  0  0  0  0  0  0  0
  1  4  2  0
  1  8  1  0
  1 10  2  0
  1 12  4  0
  1 14  3  0
  2  3  1  0
  2  5  4  0
  2  6  4  0
  2  7  3  0
  2  9  4  0
  2 13  4  0
  2 14  2  0
  3  4  1  0
  3 10  3  0
  3 14  2  0
  3 15  1  0
  4  7  3  0
  4 10  3  0
  4 11  2  0
  4 14  3  0
  5 12  2  0
  5 13  3  0
  5 14  4  0
  6  8  2  0
  6 11  4  0
  6 13  2  0
  6 15  4  0
  7  8  2  0
  7 10  4  0
  8  9  1  0
  8 10  2  0
  9 11  2  0
  9 13  3  0
 10 12  2  0
 13 15  3  0
M  END
$$$$

 Created by Python create_sdf_string function

 29  0  0  0  0  0  0  0  0  0999 V2000
    7.0325   -9.4751   15.3591 F   0  0  0  0  0  0  0  0  0  0  0  0
    5.5524   -7.9058   17.4697 F   0  0  0  0  0  0  0  0  0  0  0  0
    5.1449   -8.4653   15.3604 F   0  0  0  0  0  0  0  0  0  0  0  0
    6.8974   -6.2029   15.5056 F   0  0  0  0  0  0  0  0  0  0  0  0
    8.8808   -7.9742   17.5669 F   0  0  0  0  0  0  0  0  0  0  0  0
    6.1640   -9.2742   16.6174 F   0  0  0  0  0  0  0  0  0  0  0  0
    9.8307   -4.4885   16.9455 F   0  0  0  0  0  0  0  0  0  0  0  0
    9.3749   -5.0806   17.6719 C   0  0  0  0  0  0  0  0  0  0  0  0
    8.4350   -5.7025   16.6386 F   0  0  0  0  0  0  0  0  0  0  0  0
    6.1936   -9.0447   18.3307 F   0  0  0  0  0  0  0  0  0  0  0  0
    6.2060   -9.7246   16.4756 F   0  0  0  0  0  0  0  0  0  0  0  0
    8.9545   -6.6569   17.6175 F   0  0  0  0  0  0  0  0  0  0  0  0
    6.2207  -10.1493   17.0172 F   0  0  0  0  0  0  0  0  0  0  0  0
    8.1202   -7.8704   18.8006 F   0  0  0  0  0  0  0  0  0  0  0  0
    6.6980   -8.5854   15.4663 F   0  0  0  0  0  0  0  0  0  0  0  0
    7.9946   -7.5684   16.4554 F   0  0  0  0  0  0  0  0  0  0  0  0
    4.2032   -7.6217   17.2257 F   0  0  0  0  0  0  0  0  0  0  0  0
    8.7501   -6.4617   16.8923 F   0  0  0  0  0  0  0  0  0  0  0  0
   10.0572   -4.6742   19.6148 F   0  0  0  0  0  0  0  0  0  0  0  0
    9.6426   -4.8169   19.1660 F   0  0  0  0  0  0  0  0  0  0  0  0
   10.3540   -3.6206   17.2037 F   0  0  0  0  0  0  0  0  0  0  0  0
    4.5506   -8.6569   16.3651 F   0  0  0  0  0  0  0  0  0  0  0  0
    9.1124   -8.1921   17.0609 F   0  0  0  0  0  0  0  0  0  0  0  0
    7.2293   -7.7167   15.2327 F   0  0  0  0  0  0  0  0  0  0  0  0
    9.5759   -7.0659   18.6483 F   0  0  0  0  0  0  0  0  0  0  0  0
    7.8502   -8.4107   18.0798 F   0  0  0  0  0  0  0  0  0  0  0  0
    9.2541   -7.0036   17.7417 F   0  0  0  0  0  0  0  0  0  0  0  0
    6.8007   -6.5843   16.7900 F   0  0  0  0  0  0  0  0  0  0  0  0
    4.8757   -9.4758   17.9787 F   0  0  0  0  0  0  0  0  0  0  0  0
M  END
$$$$

 Created by Python create_sdf_string function

 29 30  0  0  0  0  0  0  0  0999 V2000
    7.9437  -10.4593   16.0433 O   0  0  0  0  0  0  0  0  0  0  0  0
    4.1618   -8.1723   17.0719 P   0  0  0  0  0  0  0  0  0  0  0  0
    5.8597   -7.0413   15.3623 O   0  0  0  0  0  0  0  0  0  0  0  0
    6.0469   -6.0136   15.3153 B   0  0  0  0  0  0  0  0  0  0  0  0
    9.9379   -7.4676   17.5592 F   0  0  0  0  0  0  0  0  0  0  0  0
    9.4233   -5.3295   16.1807 C   0  0  0  0  0  0  0  0  0  0  0  0
   10.4604   -4.9709   17.1930 B   0  0  0  0  0  0  0  0  0  0  0  0
    5.2467   -8.8597   19.0584 N   0  0  0  0  0  0  0  0  0  0  0  0
    6.6536   -9.9218   17.7477 S   0  0  0  0  0  0  0  0  0  0  0  0
    8.4465   -6.8455   17.1341 P   0  0  0  0  0  0  0  0  0  0  0  0
    5.1713   -8.2237   16.0718 C   0  0  0  0  0  0  0  0  0  0  0  0
    9.3632   -7.6331   17.0732 Br  0  0  0  0  0  0  0  0  0  0  0  0
    8.4195   -4.8052   18.2608 S   0  0  0  0  0  0  0  0  0  0  0  0
    5.6747   -6.8298   17.5616 N   0  0  0  0  0  0  0  0  0  0  0  0
    5.2558   -8.9280   15.3328 He  0  0  0  0  0  0  0  0  0  0  0  0
    8.8964   -7.1229   15.9717 He  0  0  0  0  0  0  0  0  0  0  0  0
    5.7495  -10.9319   16.4852 He  0  0  0  0  0  0  0  0  0  0  0  0
   10.1340   -6.8366   19.2305 He  0  0  0  0  0  0  0  0  0  0  0  0
    8.3482   -8.3368   20.0688 He  0  0  0  0  0  0  0  0  0  0  0  0
    6.4743  -10.4343   14.6031 He  0  0  0  0  0  0  0  0  0  0  0  0
    8.8303   -7.4414   17.8774 He  0  0  0  0  0  0  0  0  0  0  0  0
    5.9616   -8.5788   18.2645 He  0  0  0  0  0  0  0  0  0  0  0  0
   10.7995   -5.2903   19.4028 He  0  0  0  0  0  0  0  0  0  0  0  0
   10.7212   -3.6752   19.1566 He  0  0  0  0  0  0  0  0  0  0  0  0
   11.3580   -1.8380   16.7386 He  0  0  0  0  0  0  0  0  0  0  0  0
    8.9017   -8.6822   16.1388 He  0  0  0  0  0  0  0  0  0  0  0  0
    9.0839   -7.4648   14.8991 He  0  0  0  0  0  0  0  0  0  0  0  0
    4.8206   -8.7222   17.3068 He  0  0  0  0  0  0  0  0  0  0  0  0
    3.3266   -9.4745   19.0438 He  0  0  0  0  0  0  0  0  0  0  0  0
  1  3  1  0
  1  4  3  0
  1  8  1  0
  2  3  2  0
  2  6  3  0
  2 10  2  0
  2 11  1  0
  3  4  2  0
  3  9  1  0
  3 12  4  0
  3 13  3  0
  4 10  3  0
  4 11  2  0
  5  8  1  0
  5 10  4  0
  5 12  1  0
  5 14  2  0
  6 13  4  0
  7  8  3  0
  7  9  1  0
  7 10  4  0
  8 11  2  0
  8 12  3  0
  8 13  1  0
  8 14  3  0
  9 10  4  0
  9 11  1  0
 10 14  2  0
 11 12  2  0
 11 13  2  0
M  END
$$$$

 Created by Python create_sdf_string function

 29  1  0  0  0  0  0  0  0  0999 V2000
    7.4644   -9.1951   16.0430 F   0  0  0  0  0  0  0  0  0  0  0  0
    4.0999   -8.4874   16.8106 F   0  0  0  0  0  0  0  0  0  0  0  0
    5.9204   -7.1097   15.6337 F   0  0  0  0  0  0  0  0  0  0  0  0
    6.5657   -6.4717   15.8291 F   0  0  0  0  0  0  0  0  0  0  0  0
    9.7574   -6.9460   17.9811 F   0  0  0  0  0  0  0  0  0  0  0  0
    5.1247   -8.7784   15.6348 F   0  0  0  0  0  0  0  0  0  0  0  0
    9.5406   -4.7269   16.5064 C   0  0  0  0  0  0  0  0  0  0  0  0
   10.4481   -4.3682   17.2549 C   0  0  0  0  0  0  0  0  0  0  0  0
    8.5475   -6.8209   16.0942 F   0  0  0  0  0  0  0  0  0  0  0  0
    5.5491   -8.7696   18.4322 F   0  0  0  0  0  0  0  0  0  0  0  0
    5.5981  -10.1505   16.6830 F   0  0  0  0  0  0  0  0  0  0  0  0
   10.0716   -6.1470   18.9787 F   0  0  0  0  0  0  0  0  0  0  0  0
    6.4908   -9.1953   17.4183 F   0  0  0  0  0  0  0  0  0  0  0  0
    8.3346   -7.9919   18.6918 F   0  0  0  0  0  0  0  0  0  0  0  0
    6.4068   -9.6068   15.3288 F   0  0  0  0  0  0  0  0  0  0  0  0
    8.7437   -7.2232   17.8330 C   0  0  0  0  0  0  0  0  0  0  0  0
    6.0360   -8.3776   18.1066 F   0  0  0  0  0  0  0  0  0  0  0  0
    8.4064   -6.6176   17.1442 C   0  0  0  0  0  0  0  0  0  0  0  0
   10.5841   -4.9153   19.2267 C   0  0  0  0  0  0  0  0  0  0  0  0
   10.8821   -3.8009   18.8665 C   0  0  0  0  0  0  0  0  0  0  0  0
   11.1133   -3.1949   17.2159 F   0  0  0  0  0  0  0  0  0  0  0  0
    4.9603   -8.2099   16.1725 F   0  0  0  0  0  0  0  0  0  0  0  0
    8.3978   -8.3538   16.2682 F   0  0  0  0  0  0  0  0  0  0  0  0
    8.4364   -7.5221   15.3816 F   0  0  0  0  0  0  0  0  0  0  0  0
    9.1123   -7.5863   17.3142 F   0  0  0  0  0  0  0  0  0  0  0  0
    4.5643   -8.6369   17.1627 F   0  0  0  0  0  0  0  0  0  0  0  0
    9.6337   -4.9217   18.2303 C   0  0  0  0  0  0  0  0  0  0  0  0
    5.9871   -7.1386   17.4119 F   0  0  0  0  0  0  0  0  0  0  0  0
    4.0161   -9.7393   17.9756 F   0  0  0  0  0  0  0  0  0  0  0  0
  1 23  1  0
M  END
$$$$

 Created by Python create_sdf_string function

 29 41  0  0  0  0  0  0  0  0999 V2000
    6.2017  -10.1791   16.1833 F   0  0  0  0  0  0  0  0  0  0  0  0
    2.8919   -8.1611   16.5232 O   0  0  0  0  0  0  0  0  0  0  0  0
    5.3349   -5.7941   16.2761 C   0  0  0  0  0  0  0  0  0  0  0  0
    5.9661   -6.6230   14.1436 P   0  0  0  0  0  0  0  0  0  0  0  0
    8.7476   -6.3856   20.2873 O   0  0  0  0  0  0  0  0  0  0  0  0
    9.5795   -4.0846   17.2696 Cl  0  0  0  0  0  0  0  0  0  0  0  0
    8.0824   -6.8392   15.5701 F   0  0  0  0  0  0  0  0  0  0  0  0
    5.9081  -10.3577   16.8659 C   0  0  0  0  0  0  0  0  0  0  0  0
    9.6537   -6.1509   17.8165 O   0  0  0  0  0  0  0  0  0  0  0  0
    8.4236   -6.2422   18.1684 Cl  0  0  0  0  0  0  0  0  0  0  0  0
    6.0339   -8.9879   18.4724 Br  0  0  0  0  0  0  0  0  0  0  0  0
   11.0715   -4.5795   17.8103 Se  0  0  0  0  0  0  0  0  0  0  0  0
    5.0160   -9.3108   16.8920 N   0  0  0  0  0  0  0  0  0  0  0  0
    9.4431   -7.9195   16.6837 N   0  0  0  0  0  0  0  0  0  0  0  0
    7.3107   -9.1251   15.6878 C   0  0  0  0  0  0  0  0  0  0  0  0
    8.5500   -7.6725   17.3392 C   0  0  0  0  0  0  0  0  0  0  0  0
    4.5083   -9.9291   16.9478 F   0  0  0  0  0  0  0  0  0  0  0  0
    4.6817   -9.6580   15.4996 He  0  0  0  0  0  0  0  0  0  0  0  0
   10.2897   -5.9689   16.6438 He  0  0  0  0  0  0  0  0  0  0  0  0
    5.6287   -9.3531   18.6637 He  0  0  0  0  0  0  0  0  0  0  0  0
    6.4142   -9.9773   18.1477 He  0  0  0  0  0  0  0  0  0  0  0  0
    9.1013   -8.1341   18.6356 He  0  0  0  0  0  0  0  0  0  0  0  0
    6.0409   -8.8417   14.9956 He  0  0  0  0  0  0  0  0  0  0  0  0
    8.1455   -6.2155   17.9629 He  0  0  0  0  0  0  0  0  0  0  0  0
   11.0641   -5.3394   18.1084 He  0  0  0  0  0  0  0  0  0  0  0  0
   10.8064   -4.4526   19.0294 He  0  0  0  0  0  0  0  0  0  0  0  0
    8.8040   -5.1316   17.9961 He  0  0  0  0  0  0  0  0  0  0  0  0
    4.9812   -7.7717   16.5535 He  0  0  0  0  0  0  0  0  0  0  0  0
    4.0100  -11.7338   17.9655 He  0  0  0  0  0  0  0  0  0  0  0  0
  1  3  3  0
  1  7  4  0
  1  8  3  0
  2  9  1  0
  2 12  2  0
  2 16  4  0
  3  5  2  0
  3  6  4  0
  3  8  2  0
  3 10  2  0
  3 15  4  0
  3 16  4  0
  4  6  2  0
  4  9  4  0
  4 11  3  0
  4 13  1  0
  4 16  2  0
  5  6  2  0
  5  7  2  0
  5 13  4  0
  5 15  3  0
  5 16  2  0
  6  7  4  0
  6 12  4  0
  7 10  4  0
  7 14  4  0
  8  9  1  0
  8 17  4  0
  9 10  2  0
  9 14  1  0
 10 12  3  0
 10 13  2  0
 10 15  3  0
 11 13  3  0
 11 14  1  0
 11 16  3  0
 12 14  3  0
 12 17  1  0
 14 16  4  0
 15 16  3  0
 16 17  1  0
M  END
$$$$

 Created by Python create_sdf_string function

 29  1  0  0  0  0  0  0  0  0999 V2000
    6.2320   -9.6481   16.1467 F   0  0  0  0  0  0  0  0  0  0  0  0
    3.5528   -8.5059   16.6054 F   0  0  0  0  0  0  0  0  0  0  0  0
    6.0894   -6.6936   16.2085 F   0  0  0  0  0  0  0  0  0  0  0  0
    6.2140   -6.9126   15.2353 F   0  0  0  0  0  0  0  0  0  0  0  0
    9.6779   -5.9963   19.2679 F   0  0  0  0  0  0  0  0  0  0  0  0
    4.5271   -9.0800   15.8094 F   0  0  0  0  0  0  0  0  0  0  0  0
    9.8570   -5.3754   16.8639 F   0  0  0  0  0  0  0  0  0  0  0  0
   10.0082   -4.0860   16.9057 F   0  0  0  0  0  0  0  0  0  0  0  0
    7.9868   -6.8449   15.7541 F   0  0  0  0  0  0  0  0  0  0  0  0
    5.6103   -9.0944   18.2485 F   0  0  0  0  0  0  0  0  0  0  0  0
    5.6647   -9.9764   16.7911 F   0  0  0  0  0  0  0  0  0  0  0  0
    9.7395   -6.0346   17.9304 C   0  0  0  0  0  0  0  0  0  0  0  0
    6.2127   -9.1279   17.7550 F   0  0  0  0  0  0  0  0  0  0  0  0
    9.0450   -7.7925   18.3625 F   0  0  0  0  0  0  0  0  0  0  0  0
    5.9803   -8.4944   15.4672 F   0  0  0  0  0  0  0  0  0  0  0  0
    8.5638   -6.2907   17.9336 F   0  0  0  0  0  0  0  0  0  0  0  0
    6.3107   -8.3541   18.2020 F   0  0  0  0  0  0  0  0  0  0  0  0
    8.0857   -6.5049   17.6797 F   0  0  0  0  0  0  0  0  0  0  0  0
   10.8414   -4.8422   18.1726 C   0  0  0  0  0  0  0  0  0  0  0  0
   10.8404   -4.1595   19.0199 C   0  0  0  0  0  0  0  0  0  0  0  0
   10.9346   -4.0123   17.7206 C   0  0  0  0  0  0  0  0  0  0  0  0
    4.6997   -9.0852   16.9828 C   0  0  0  0  0  0  0  0  0  0  0  0
    8.9083   -7.8209   16.7704 F   0  0  0  0  0  0  0  0  0  0  0  0
    7.5132   -8.5516   15.8016 F   0  0  0  0  0  0  0  0  0  0  0  0
    8.2861   -7.7210   17.3264 F   0  0  0  0  0  0  0  0  0  0  0  0
    4.1799   -9.6438   17.2843 C   0  0  0  0  0  0  0  0  0  0  0  0
    9.3887   -5.0607   17.9064 F   0  0  0  0  0  0  0  0  0  0  0  0
    4.9601   -7.8037   16.5136 F   0  0  0  0  0  0  0  0  0  0  0  0
    4.1327  -10.6314   18.1487 F   0  0  0  0  0  0  0  0  0  0  0  0
  3  4  1  0
M  END
$$$$

 Created by Python create_sdf_string function

 29 39  0  0  0  0  0  0  0  0999 V2000
    3.0453   -9.0318   17.7382 S   0  0  0  0  0  0  0  0  0  0  0  0
   10.0768   -5.8007   20.1627 O   0  0  0  0  0  0  0  0  0  0  0  0
   10.3328   -3.0997   18.2392 C   0  0  0  0  0  0  0  0  0  0  0  0
    5.6502   -9.7876   17.9385 S   0  0  0  0  0  0  0  0  0  0  0  0
    7.2366   -8.8724   15.7304 S   0  0  0  0  0  0  0  0  0  0  0  0
    6.2430   -8.2266   16.9462 C   0  0  0  0  0  0  0  0  0  0  0  0
    4.0767   -7.6646   15.3776 N   0  0  0  0  0  0  0  0  0  0  0  0
    8.5871   -5.4276   16.3237 N   0  0  0  0  0  0  0  0  0  0  0  0
    6.4649   -8.7840   19.8618 P   0  0  0  0  0  0  0  0  0  0  0  0
    8.7741   -6.1316   17.6141 C   0  0  0  0  0  0  0  0  0  0  0  0
   10.0269   -4.1488   16.5004 S   0  0  0  0  0  0  0  0  0  0  0  0
    7.0382   -9.8182   17.0891 F   0  0  0  0  0  0  0  0  0  0  0  0
    9.4410   -8.9628   15.7883 C   0  0  0  0  0  0  0  0  0  0  0  0
    3.0785   -7.6863   17.5032 F   0  0  0  0  0  0  0  0  0  0  0  0
    5.0796   -8.3532   16.1948 He  0  0  0  0  0  0  0  0  0  0  0  0
    8.0086   -6.1012   16.3189 He  0  0  0  0  0  0  0  0  0  0  0  0
    6.9799   -8.3613   15.0830 He  0  0  0  0  0  0  0  0  0  0  0  0
    6.4035   -7.0476   13.6025 He  0  0  0  0  0  0  0  0  0  0  0  0
    9.3250   -6.2803   16.8189 He  0  0  0  0  0  0  0  0  0  0  0  0
    9.2897   -5.3246   15.4635 He  0  0  0  0  0  0  0  0  0  0  0  0
   10.7734   -5.0104   17.9391 He  0  0  0  0  0  0  0  0  0  0  0  0
    8.8513   -8.6649   18.4296 He  0  0  0  0  0  0  0  0  0  0  0  0
   10.5099   -5.9682   18.4724 He  0  0  0  0  0  0  0  0  0  0  0  0
    9.9154   -4.4854   20.0255 He  0  0  0  0  0  0  0  0  0  0  0  0
    9.2463   -6.9044   17.0844 He  0  0  0  0  0  0  0  0  0  0  0  0
    8.5403   -9.5508   17.1952 He  0  0  0  0  0  0  0  0  0  0  0  0
    3.1065   -9.6693   17.5742 He  0  0  0  0  0  0  0  0  0  0  0  0
    9.0888   -5.0527   16.9146 He  0  0  0  0  0  0  0  0  0  0  0  0
    3.9509  -10.8775   17.6369 He  0  0  0  0  0  0  0  0  0  0  0  0
  1  2  1  0
  1 10  1  0
  1 11  1  0
  1 12  2  0
  1 14  1  0
  2  4  1  0
  2  5  3  0
  2  6  1  0
  2  7  3  0
  2  8  2  0
  2 11  1  0
  2 14  1  0
  3  4  4  0
  3  9  2  0
  3 12  4  0
  3 13  2  0
  3 14  4  0
  4  5  3  0
  4  6  1  0
  4  8  2  0
  4 10  1  0
  4 11  2  0
  4 12  3  0
  5  7  4  0
  5 11  4  0
  5 13  1  0
  6  9  3  0
  6 10  3  0
  6 13  2  0
  7 10  4  0
  7 11  1  0
  7 14  2  0
  8 10  4  0
  8 11  3  0
  8 12  1  0
 10 11  2  0
 10 13  4  0
 11 12  1  0
 12 13  2  0
M  END
$$$$

 Created by Python create_sdf_string function

 29  0  0  0  0  0  0  0  0  0999 V2000
    4.7582   -8.4430   16.3723 C   0  0  0  0  0  0  0  0  0  0  0  0
    3.2786   -9.3030   17.1756 C   0  0  0  0  0  0  0  0  0  0  0  0
    7.6873   -6.3601   16.2416 F   0  0  0  0  0  0  0  0  0  0  0  0
    6.7680   -8.2587   15.6865 F   0  0  0  0  0  0  0  0  0  0  0  0
   10.3432   -5.3613   19.7925 F   0  0  0  0  0  0  0  0  0  0  0  0
    6.3952   -7.0418   15.0912 F   0  0  0  0  0  0  0  0  0  0  0  0
    9.2111   -6.2226   17.1180 C   0  0  0  0  0  0  0  0  0  0  0  0
   10.7920   -3.4988   18.2892 C   0  0  0  0  0  0  0  0  0  0  0  0
    9.0140   -4.8777   15.9991 F   0  0  0  0  0  0  0  0  0  0  0  0
    5.2846   -9.3573   17.7817 C   0  0  0  0  0  0  0  0  0  0  0  0
    7.2313   -8.5334   15.9868 C   0  0  0  0  0  0  0  0  0  0  0  0
   10.6748   -4.5176   18.2420 C   0  0  0  0  0  0  0  0  0  0  0  0
    6.0817   -8.1524   17.0124 C   0  0  0  0  0  0  0  0  0  0  0  0
    8.7270   -7.9677   18.1788 F   0  0  0  0  0  0  0  0  0  0  0  0
    4.3534   -8.0033   16.0237 F   0  0  0  0  0  0  0  0  0  0  0  0
    8.6385   -5.4295   16.3258 F   0  0  0  0  0  0  0  0  0  0  0  0
    6.3064   -8.6096   18.6897 F   0  0  0  0  0  0  0  0  0  0  0  0
    9.0236   -6.1974   17.8087 C   0  0  0  0  0  0  0  0  0  0  0  0
   10.3021   -5.6680   18.7762 F   0  0  0  0  0  0  0  0  0  0  0  0
   10.5262   -4.3597   19.8816 C   0  0  0  0  0  0  0  0  0  0  0  0
   10.2841   -3.8706   16.5971 F   0  0  0  0  0  0  0  0  0  0  0  0
    6.8250   -9.2260   17.0326 F   0  0  0  0  0  0  0  0  0  0  0  0
    8.9904   -6.9348   17.4262 F   0  0  0  0  0  0  0  0  0  0  0  0
    8.1825   -8.6275   17.2260 F   0  0  0  0  0  0  0  0  0  0  0  0
    8.6407   -8.3692   15.8577 F   0  0  0  0  0  0  0  0  0  0  0  0
    3.2330   -9.4959   17.2754 C   0  0  0  0  0  0  0  0  0  0  0  0
    9.5439   -4.8473   16.9260 C   0  0  0  0  0  0  0  0  0  0  0  0
    3.4763   -8.3357   16.7595 C   0  0  0  0  0  0  0  0  0  0  0  0
    4.1332  -10.2164   17.9556 C   0  0  0  0  0  0  0  0  0  0  0  0
M  END
$$$$

 Created by Python create_sdf_string function

 29 36  0  0  0  0  0  0  0  0999 V2000
    3.9687  -10.0570   17.1459 C   0  0  0  0  0  0  0  0  0  0  0  0
    7.9747   -6.7338   15.4819 Br  0  0  0  0  0  0  0  0  0  0  0  0
   11.6261   -3.7565   18.7972 S   0  0  0  0  0  0  0  0  0  0  0  0
    6.2072   -8.9591   16.6532 O   0  0  0  0  0  0  0  0  0  0  0  0
   10.2321   -5.6911   16.6925 F   0  0  0  0  0  0  0  0  0  0  0  0
   10.3118   -6.3811   17.7294 F   0  0  0  0  0  0  0  0  0  0  0  0
    4.7309   -9.0979   15.2806 O   0  0  0  0  0  0  0  0  0  0  0  0
    8.8148   -4.9578   16.3983 C   0  0  0  0  0  0  0  0  0  0  0  0
    7.9004   -8.2630   16.8024 I   0  0  0  0  0  0  0  0  0  0  0  0
   12.4982   -6.1291   19.4625 F   0  0  0  0  0  0  0  0  0  0  0  0
    7.9702   -9.6579   19.1850 F   0  0  0  0  0  0  0  0  0  0  0  0
    5.0241   -9.5067   17.9979 F   0  0  0  0  0  0  0  0  0  0  0  0
    8.0979   -5.6281   16.8609 F   0  0  0  0  0  0  0  0  0  0  0  0
    5.6885  -10.7123   18.0544 Br  0  0  0  0  0  0  0  0  0  0  0  0
    3.9542   -8.9423   15.8618 He  0  0  0  0  0  0  0  0  0  0  0  0
    8.2258   -8.0471   16.2096 He  0  0  0  0  0  0  0  0  0  0  0  0
    9.6773   -5.0783   19.1192 He  0  0  0  0  0  0  0  0  0  0  0  0
    6.6820   -7.4732   14.9862 He  0  0  0  0  0  0  0  0  0  0  0  0
    8.9080   -6.2137   15.5255 He  0  0  0  0  0  0  0  0  0  0  0  0
    8.4550   -5.7826   16.5655 He  0  0  0  0  0  0  0  0  0  0  0  0
    4.1728   -8.8319   17.7622 He  0  0  0  0  0  0  0  0  0  0  0  0
    6.5384   -8.8487   18.4854 He  0  0  0  0  0  0  0  0  0  0  0  0
    5.6772   -8.3411   19.5648 He  0  0  0  0  0  0  0  0  0  0  0  0
   10.6425   -6.3955   18.2872 He  0  0  0  0  0  0  0  0  0  0  0  0
    9.8438   -3.3460   15.7489 He  0  0  0  0  0  0  0  0  0  0  0  0
    8.4330   -7.2858   16.1100 He  0  0  0  0  0  0  0  0  0  0  0  0
    9.9148   -8.3844   16.0964 He  0  0  0  0  0  0  0  0  0  0  0  0
    6.9878   -7.3137   15.3476 He  0  0  0  0  0  0  0  0  0  0  0  0
    3.7923   -9.3305   17.6697 He  0  0  0  0  0  0  0  0  0  0  0  0
  1  2  4  0
  1  6  4  0
  1  8  2  0
  1 10  2  0
  1 14  2  0
  2  3  1  0
  2  9  1  0
  2 10  3  0
  2 12  3  0
  2 13  1  0
  2 14  3  0
  3  4  4  0
  3  7  4  0
  3  9  4  0
  3 10  1  0
  3 13  3  0
  3 14  1  0
  4 10  1  0
  4 11  2  0
  5  6  2  0
  5  8  2  0
  5 11  4  0
  5 13  4  0
  5 14  3  0
  6  9  2  0
  7 10  1  0
  8 11  3  0
  8 13  4  0
  8 14  4  0
  9 12  1  0
 10 11  2  0
 10 12  3  0
 10 14  3  0
 11 13  1  0
 12 13  2  0
 12 14  2  0
M  END
$$$$

 Created by Python create_sdf_string function

 29  1  0  0  0  0  0  0  0  0999 V2000
    3.9201   -8.7693   16.0746 C   0  0  0  0  0  0  0  0  0  0  0  0
    3.7260   -9.5239   17.1885 C   0  0  0  0  0  0  0  0  0  0  0  0
    7.7442   -6.7467   15.6327 F   0  0  0  0  0  0  0  0  0  0  0  0
    8.0189   -8.1799   16.1235 C   0  0  0  0  0  0  0  0  0  0  0  0
   10.2768   -5.0085   19.3166 C   0  0  0  0  0  0  0  0  0  0  0  0
    6.5502   -7.5824   15.4474 F   0  0  0  0  0  0  0  0  0  0  0  0
    8.7177   -6.0789   15.8823 F   0  0  0  0  0  0  0  0  0  0  0  0
   11.2446   -4.1418   18.8517 C   0  0  0  0  0  0  0  0  0  0  0  0
    8.7134   -5.7040   16.5703 C   0  0  0  0  0  0  0  0  0  0  0  0
    4.0854   -9.0095   17.1805 C   0  0  0  0  0  0  0  0  0  0  0  0
    6.1543   -8.7970   16.5929 C   0  0  0  0  0  0  0  0  0  0  0  0
   10.2203   -5.0266   17.3274 C   0  0  0  0  0  0  0  0  0  0  0  0
    6.5450   -8.5657   18.1068 F   0  0  0  0  0  0  0  0  0  0  0  0
   10.2700   -6.2255   18.2922 F   0  0  0  0  0  0  0  0  0  0  0  0
    4.5474   -8.8082   15.6179 F   0  0  0  0  0  0  0  0  0  0  0  0
    9.3157   -4.6638   16.4564 C   0  0  0  0  0  0  0  0  0  0  0  0
    6.0015   -8.3978   18.7629 F   0  0  0  0  0  0  0  0  0  0  0  0
    7.7013   -8.3165   16.8291 C   0  0  0  0  0  0  0  0  0  0  0  0
   10.4794   -6.0858   18.6775 C   0  0  0  0  0  0  0  0  0  0  0  0
   11.5278   -5.4542   19.3957 F   0  0  0  0  0  0  0  0  0  0  0  0
    9.9553   -3.7776   16.2580 F   0  0  0  0  0  0  0  0  0  0  0  0
    7.7769   -8.3603   18.3485 F   0  0  0  0  0  0  0  0  0  0  0  0
    8.3095   -7.4198   16.3361 C   0  0  0  0  0  0  0  0  0  0  0  0
    9.1510   -8.3267   16.7597 F   0  0  0  0  0  0  0  0  0  0  0  0
    6.7710   -7.3139   15.6050 F   0  0  0  0  0  0  0  0  0  0  0  0
    4.9471   -9.3066   17.8738 F   0  0  0  0  0  0  0  0  0  0  0  0
    8.3233   -5.8597   16.6802 F   0  0  0  0  0  0  0  0  0  0  0  0
    3.6309   -9.3704   17.2865 C   0  0  0  0  0  0  0  0  0  0  0  0
    5.2451   -9.9323   17.8311 F   0  0  0  0  0  0  0  0  0  0  0  0
 13 17  1  0
M  END
$$$$

 Created by Python create_sdf_string function

 29 26  0  0  0  0  0  0  0  0999 V2000
    8.2867   -6.4256   16.9637 P   0  0  0  0  0  0  0  0  0  0  0  0
    7.9651   -8.9695   17.1224 N   0  0  0  0  0  0  0  0  0  0  0  0
    8.6107   -5.8749   19.9114 B   0  0  0  0  0  0  0  0  0  0  0  0
    8.2154   -5.8476   16.3423 O   0  0  0  0  0  0  0  0  0  0  0  0
    9.6743   -3.4515   18.2967 B   0  0  0  0  0  0  0  0  0  0  0  0
    6.5495   -9.0655   16.9074 P   0  0  0  0  0  0  0  0  0  0  0  0
    6.9947   -9.2909   18.5165 P   0  0  0  0  0  0  0  0  0  0  0  0
    5.8559   -9.0923   16.9131 I   0  0  0  0  0  0  0  0  0  0  0  0
    7.5383   -8.5809   16.7493 C   0  0  0  0  0  0  0  0  0  0  0  0
    2.8387   -8.9459   16.1140 Cl  0  0  0  0  0  0  0  0  0  0  0  0
    8.3959   -7.3933   15.8453 F   0  0  0  0  0  0  0  0  0  0  0  0
    3.4464  -10.4012   18.1481 O   0  0  0  0  0  0  0  0  0  0  0  0
    2.4849  -10.5984   16.8828 He  0  0  0  0  0  0  0  0  0  0  0  0
    2.5906   -8.3727   15.6590 He  0  0  0  0  0  0  0  0  0  0  0  0
    4.8234   -7.0301   16.6829 He  0  0  0  0  0  0  0  0  0  0  0  0
    9.7891   -5.1719   16.9893 He  0  0  0  0  0  0  0  0  0  0  0  0
    5.6109   -8.2896   18.0404 He  0  0  0  0  0  0  0  0  0  0  0  0
   11.0362   -3.9239   17.1827 He  0  0  0  0  0  0  0  0  0  0  0  0
    9.2849   -6.8028   20.0192 He  0  0  0  0  0  0  0  0  0  0  0  0
    3.3285  -10.1760   15.5923 He  0  0  0  0  0  0  0  0  0  0  0  0
    9.6607   -4.1611   16.6278 He  0  0  0  0  0  0  0  0  0  0  0  0
    7.7733   -9.7783   18.1314 He  0  0  0  0  0  0  0  0  0  0  0  0
    9.8087   -5.5486   19.2728 He  0  0  0  0  0  0  0  0  0  0  0  0
   11.2230   -6.4687   19.3411 He  0  0  0  0  0  0  0  0  0  0  0  0
    8.5804   -4.8688   15.8342 He  0  0  0  0  0  0  0  0  0  0  0  0
    8.1775   -5.9692   17.8138 He  0  0  0  0  0  0  0  0  0  0  0  0
   10.3594   -7.8174   16.8560 He  0  0  0  0  0  0  0  0  0  0  0  0
    6.4775   -6.9874   15.8124 He  0  0  0  0  0  0  0  0  0  0  0  0
    5.8293   -9.2091   18.3999 He  0  0  0  0  0  0  0  0  0  0  0  0
  1  2  1  0
  1  4  4  0
  1  5  1  0
  1  8  3  0
  1  9  1  0
  1 12  1  0
  2  3  2  0
  2  5  2  0
  2  7  4  0
  2 11  1  0
  2 12  4  0
  3 10  4  0
  4  9  3  0
  4 10  4  0
  4 12  1  0
  5  7  4  0
  5  8  1  0
  5 10  3  0
  5 12  2  0
  6  9  2  0
  6 10  4  0
  6 11  2  0
  7  9  4  0
  7 12  2  0
  8 10  2  0
 10 12  3  0
M  END
$$$$

 Created by Python create_sdf_string function

 29  0  0  0  0  0  0  0  0  0999 V2000
    2.4081   -9.8840   17.2667 C   0  0  0  0  0  0  0  0  0  0  0  0
    2.9257   -8.7983   16.1497 C   0  0  0  0  0  0  0  0  0  0  0  0
    8.3182   -6.5940   17.0613 F   0  0  0  0  0  0  0  0  0  0  0  0
    8.1055   -8.3824   16.9843 F   0  0  0  0  0  0  0  0  0  0  0  0
    9.4104   -5.3805   19.3537 F   0  0  0  0  0  0  0  0  0  0  0  0
    4.8187   -7.6333   16.4268 F   0  0  0  0  0  0  0  0  0  0  0  0
    8.2108   -5.8999   16.3563 F   0  0  0  0  0  0  0  0  0  0  0  0
   10.4657   -3.9305   18.3323 F   0  0  0  0  0  0  0  0  0  0  0  0
    9.8849   -4.7998   17.0867 C   0  0  0  0  0  0  0  0  0  0  0  0
    5.5629   -8.2440   17.6573 F   0  0  0  0  0  0  0  0  0  0  0  0
    6.3501   -8.7758   16.7572 F   0  0  0  0  0  0  0  0  0  0  0  0
   10.7895   -3.7586   17.2144 F   0  0  0  0  0  0  0  0  0  0  0  0
    6.8392   -8.4158   18.1781 F   0  0  0  0  0  0  0  0  0  0  0  0
    9.7354   -6.5907   19.2214 F   0  0  0  0  0  0  0  0  0  0  0  0
    3.1455   -9.2356   16.4254 C   0  0  0  0  0  0  0  0  0  0  0  0
   10.0112   -4.0176   16.5668 F   0  0  0  0  0  0  0  0  0  0  0  0
    7.7991   -8.6732   17.7644 F   0  0  0  0  0  0  0  0  0  0  0  0
    5.1585   -8.8984   16.8705 C   0  0  0  0  0  0  0  0  0  0  0  0
   10.1558   -5.2539   19.2118 C   0  0  0  0  0  0  0  0  0  0  0  0
   10.6527   -5.9579   19.0410 F   0  0  0  0  0  0  0  0  0  0  0  0
    8.8622   -4.8256   16.1550 F   0  0  0  0  0  0  0  0  0  0  0  0
    8.5301   -6.2563   17.8222 F   0  0  0  0  0  0  0  0  0  0  0  0
    9.3833   -7.5722   17.5623 F   0  0  0  0  0  0  0  0  0  0  0  0
    7.5324   -8.3390   16.5774 F   0  0  0  0  0  0  0  0  0  0  0  0
    6.4876   -7.0220   15.9345 F   0  0  0  0  0  0  0  0  0  0  0  0
    3.0877   -9.0545   16.5033 C   0  0  0  0  0  0  0  0  0  0  0  0
    8.2314   -7.6308   15.8096 F   0  0  0  0  0  0  0  0  0  0  0  0
    3.4357  -10.0937   17.8755 C   0  0  0  0  0  0  0  0  0  0  0  0
    5.6369   -8.9816   18.1257 F   0  0  0  0  0  0  0  0  0  0  0  0
M  END
$$$$

 Created by Python create_sdf_string function

 29 24  0  0  0  0  0  0  0  0999 V2000
    1.4059   -7.1649   15.3819 F   0  0  0  0  0  0  0  0  0  0  0  0
   10.3863   -7.5836   18.7156 O   0  0  0  0  0  0  0  0  0  0  0  0
   10.1263   -3.9162   17.8182 S   0  0  0  0  0  0  0  0  0  0  0  0
    6.2305   -7.8182   17.4876 Cl  0  0  0  0  0  0  0  0  0  0  0  0
    6.5296   -9.4555   17.7067 C   0  0  0  0  0  0  0  0  0  0  0  0
   11.3626   -3.6864   17.7688 N   0  0  0  0  0  0  0  0  0  0  0  0
    6.2962   -6.7165   17.6679 F   0  0  0  0  0  0  0  0  0  0  0  0
    2.2882   -9.2131   17.4023 F   0  0  0  0  0  0  0  0  0  0  0  0
    7.7984   -5.8458   16.9307 C   0  0  0  0  0  0  0  0  0  0  0  0
   10.6985   -3.5438   16.9682 O   0  0  0  0  0  0  0  0  0  0  0  0
    7.4635   -6.5658   19.0708 S   0  0  0  0  0  0  0  0  0  0  0  0
    5.2712   -7.5338   15.6051 F   0  0  0  0  0  0  0  0  0  0  0  0
    3.5373   -9.1718   15.3418 C   0  0  0  0  0  0  0  0  0  0  0  0
    4.8406   -8.9224   18.7775 P   0  0  0  0  0  0  0  0  0  0  0  0
    2.0361   -8.9144   15.3343 He  0  0  0  0  0  0  0  0  0  0  0  0
    8.6142   -8.2626   18.3289 He  0  0  0  0  0  0  0  0  0  0  0  0
    7.8815   -8.3519   18.1507 He  0  0  0  0  0  0  0  0  0  0  0  0
    3.2881   -8.0224   16.5438 He  0  0  0  0  0  0  0  0  0  0  0  0
    8.5929   -6.6887   17.5233 He  0  0  0  0  0  0  0  0  0  0  0  0
    8.7693   -5.1128   18.8619 He  0  0  0  0  0  0  0  0  0  0  0  0
   10.1766   -6.4142   20.5690 He  0  0  0  0  0  0  0  0  0  0  0  0
    8.0513   -8.3838   18.6417 He  0  0  0  0  0  0  0  0  0  0  0  0
    3.6807   -7.0014   17.0332 He  0  0  0  0  0  0  0  0  0  0  0  0
   11.0869   -5.1422   18.6797 He  0  0  0  0  0  0  0  0  0  0  0  0
   10.8876   -6.1575   19.6662 He  0  0  0  0  0  0  0  0  0  0  0  0
   10.3238   -5.9988   18.6322 He  0  0  0  0  0  0  0  0  0  0  0  0
    5.8035   -9.1683   16.0036 He  0  0  0  0  0  0  0  0  0  0  0  0
    9.4771   -6.9088   15.3289 He  0  0  0  0  0  0  0  0  0  0  0  0
    3.2432  -10.8888   19.2762 He  0  0  0  0  0  0  0  0  0  0  0  0
  1  2  4  0
  2  3  4  0
  2  4  2  0
  2  7  4  0
  2  8  3  0
  2 10  1  0
  2 12  2  0
  2 13  4  0
  3 14  4  0
  4 12  1  0
  4 13  4  0
  4 14  3  0
  5  6  4  0
  5  7  2  0
  5 10  3  0
  5 12  1  0
  5 13  2  0
  6 12  4  0
  7  9  4  0
  7 13  4  0
  7 14  3  0
  8 12  4  0
  8 14  2  0
 12 14  4  0
M  END
$$$$

 Created by Python create_sdf_string function

 29  0  0  0  0  0  0  0  0  0999 V2000
    2.1473   -8.8855   15.9322 C   0  0  0  0  0  0  0  0  0  0  0  0
    1.8982   -7.8089   15.6794 C   0  0  0  0  0  0  0  0  0  0  0  0
    8.6565   -8.0603   17.7927 F   0  0  0  0  0  0  0  0  0  0  0  0
    7.7775   -8.1742   17.5366 C   0  0  0  0  0  0  0  0  0  0  0  0
   10.0555   -7.2464   18.5453 F   0  0  0  0  0  0  0  0  0  0  0  0
    3.4005   -8.4709   16.4304 C   0  0  0  0  0  0  0  0  0  0  0  0
    8.5455   -6.5753   17.3553 C   0  0  0  0  0  0  0  0  0  0  0  0
   10.4040   -4.0448   17.5081 C   0  0  0  0  0  0  0  0  0  0  0  0
    9.3321   -5.1398   18.4092 C   0  0  0  0  0  0  0  0  0  0  0  0
    6.0226   -8.0174   17.1328 C   0  0  0  0  0  0  0  0  0  0  0  0
    6.2186   -8.9544   17.4903 F   0  0  0  0  0  0  0  0  0  0  0  0
   11.0186   -3.6786   17.7562 C   0  0  0  0  0  0  0  0  0  0  0  0
    6.4542   -6.9548   17.1596 F   0  0  0  0  0  0  0  0  0  0  0  0
   10.4105   -5.8857   19.8202 F   0  0  0  0  0  0  0  0  0  0  0  0
    2.7411   -9.4925   17.0207 C   0  0  0  0  0  0  0  0  0  0  0  0
    8.0635   -5.9734   16.6432 C   0  0  0  0  0  0  0  0  0  0  0  0
    7.9641   -8.0707   18.0232 F   0  0  0  0  0  0  0  0  0  0  0  0
    3.7321   -7.7805   16.4097 C   0  0  0  0  0  0  0  0  0  0  0  0
   10.9114   -4.6228   18.6649 C   0  0  0  0  0  0  0  0  0  0  0  0
   10.6276   -5.6125   19.3011 C   0  0  0  0  0  0  0  0  0  0  0  0
   10.5132   -3.7785   16.8151 C   0  0  0  0  0  0  0  0  0  0  0  0
    7.5773   -6.6499   18.1913 F   0  0  0  0  0  0  0  0  0  0  0  0
   10.1643   -5.8342   18.4694 C   0  0  0  0  0  0  0  0  0  0  0  0
    5.8692   -8.8395   16.1961 F   0  0  0  0  0  0  0  0  0  0  0  0
    5.1754   -7.6752   16.0266 F   0  0  0  0  0  0  0  0  0  0  0  0
    3.4255   -8.8625   16.0098 C   0  0  0  0  0  0  0  0  0  0  0  0
    8.6914   -7.1886   15.9281 F   0  0  0  0  0  0  0  0  0  0  0  0
    3.6582  -10.3797   18.0642 C   0  0  0  0  0  0  0  0  0  0  0  0
    4.9559   -9.3874   17.8057 C   0  0  0  0  0  0  0  0  0  0  0  0
M  END
$$$$

 Created by Python create_sdf_string function

 29 72  0  0  0  0  0  0  0  0999 V2000
    2.1527   -9.1869   16.9161 C   0  0  0  0  0  0  0  0  0  0  0  0
    3.8223   -7.5473   14.1710 C   0  0  0  0  0  0  0  0  0  0  0  0
    6.0286   -6.9138   18.2759 P   0  0  0  0  0  0  0  0  0  0  0  0
    7.8038   -7.2213   18.4842 F   0  0  0  0  0  0  0  0  0  0  0  0
    3.5737  -10.0140   15.5571 O   0  0  0  0  0  0  0  0  0  0  0  0
    7.3418   -6.3771   15.6603 S   0  0  0  0  0  0  0  0  0  0  0  0
    7.3537   -7.2790   18.1318 P   0  0  0  0  0  0  0  0  0  0  0  0
   12.2157   -2.8328   16.9338 Br  0  0  0  0  0  0  0  0  0  0  0  0
    3.6881   -6.2685   18.2373 C   0  0  0  0  0  0  0  0  0  0  0  0
    8.1148   -5.4086   21.5117 O   0  0  0  0  0  0  0  0  0  0  0  0
    1.8463   -7.5455   15.9129 N   0  0  0  0  0  0  0  0  0  0  0  0
    6.3268   -6.4647   16.7858 C   0  0  0  0  0  0  0  0  0  0  0  0
   10.2719   -3.7948   18.8273 C   0  0  0  0  0  0  0  0  0  0  0  0
    9.5598   -5.3429   18.2333 Br  0  0  0  0  0  0  0  0  0  0  0  0
    9.1909   -4.2970   18.7048 O   0  0  0  0  0  0  0  0  0  0  0  0
   11.0913   -6.3643   18.0457 F   0  0  0  0  0  0  0  0  0  0  0  0
    5.8607   -9.3130   14.4962 S   0  0  0  0  0  0  0  0  0  0  0  0
    4.0348   -8.7992   14.5758 C   0  0  0  0  0  0  0  0  0  0  0  0
    7.8369   -9.0275   17.9924 He  0  0  0  0  0  0  0  0  0  0  0  0
    9.6869   -2.9973   17.5434 He  0  0  0  0  0  0  0  0  0  0  0  0
    9.6542   -5.8023   19.3733 He  0  0  0  0  0  0  0  0  0  0  0  0
    6.2276   -9.2679   16.9063 He  0  0  0  0  0  0  0  0  0  0  0  0
    7.7990   -5.7680   16.4424 He  0  0  0  0  0  0  0  0  0  0  0  0
    4.6541   -8.0285   15.5160 He  0  0  0  0  0  0  0  0  0  0  0  0
    6.2959   -6.8111   17.2713 He  0  0  0  0  0  0  0  0  0  0  0  0
    4.9498   -7.0449   16.6222 He  0  0  0  0  0  0  0  0  0  0  0  0
    9.4889   -6.5781   14.5545 He  0  0  0  0  0  0  0  0  0  0  0  0
    4.7359  -10.5319   18.9421 He  0  0  0  0  0  0  0  0  0  0  0  0
    6.1217   -8.6351   16.5619 He  0  0  0  0  0  0  0  0  0  0  0  0
  1  4  1  0
  1  6  1  0
  1  7  1  0
  1  8  1  0
  1  9  4  0
  1 10  4  0
  1 12  4  0
  1 14  3  0
  1 17  2  0
  2  3  4  0
  2  7  1  0
  2 10  3  0
  2 11  4  0
  2 13  3  0
  2 16  1  0
  2 18  2  0
  3  4  4  0
  3  5  4  0
  3  6  4  0
  3  7  1  0
  3  8  4  0
  3  9  3  0
  3 15  1  0
  4  6  1  0
  4  9  1  0
  4 10  2  0
  4 14  3  0
  4 17  1  0
  4 18  1  0
  5  7  2  0
  5  9  3  0
  5 11  1  0
  5 12  4  0
  5 13  4  0
  5 16  2  0
  5 17  2  0
  6  7  3  0
  6  8  3  0
  6 12  4  0
  6 14  1  0
  6 15  2  0
  6 16  4  0
  6 17  4  0
  6 18  2  0
  7  8  2  0
  7 13  1  0
  7 14  4  0
  7 18  2  0
  8  9  1  0
  8 10  2  0
  8 11  1  0
  8 12  1  0
  8 13  2  0
  8 15  2  0
  8 16  3  0
  9 15  1  0
  9 16  1  0
  9 17  2  0
 10 11  3  0
 10 15  3  0
 11 12  3  0
 11 13  3  0
 11 17  1  0
 12 13  2  0
 12 14  1  0
 12 18  1  0
 13 14  1  0
 13 16  3  0
 13 18  1  0
 14 15  4  0
 14 18  3  0
 16 17  1  0
M  END
$$$$

 Created by Python create_sdf_string function

 29  0  0  0  0  0  0  0  0  0999 V2000
    2.7481   -9.0505   16.6850 C   0  0  0  0  0  0  0  0  0  0  0  0
    3.7205   -7.6043   15.1306 C   0  0  0  0  0  0  0  0  0  0  0  0
    6.4914   -7.3293   18.1775 F   0  0  0  0  0  0  0  0  0  0  0  0
    8.3847   -7.2535   18.0518 F   0  0  0  0  0  0  0  0  0  0  0  0
    7.9307   -8.5171   17.5340 F   0  0  0  0  0  0  0  0  0  0  0  0
    3.5731   -9.2158   16.0989 C   0  0  0  0  0  0  0  0  0  0  0  0
    7.4121   -6.6379   15.7450 F   0  0  0  0  0  0  0  0  0  0  0  0
   10.4566   -3.8705   17.1429 C   0  0  0  0  0  0  0  0  0  0  0  0
    9.9390   -5.6155   19.1601 C   0  0  0  0  0  0  0  0  0  0  0  0
    7.8174   -7.2866   17.9101 C   0  0  0  0  0  0  0  0  0  0  0  0
    6.2958   -9.1035   16.9747 F   0  0  0  0  0  0  0  0  0  0  0  0
   11.2542   -3.4522   17.0251 C   0  0  0  0  0  0  0  0  0  0  0  0
    4.1889   -7.3877   17.2112 C   0  0  0  0  0  0  0  0  0  0  0  0
    9.8214   -4.6114   20.2358 O   0  0  0  0  0  0  0  0  0  0  0  0
    2.4926   -7.9842   15.9830 C   0  0  0  0  0  0  0  0  0  0  0  0
    8.4607   -5.7831   16.5314 C   0  0  0  0  0  0  0  0  0  0  0  0
    6.6364   -6.8057   16.4791 C   0  0  0  0  0  0  0  0  0  0  0  0
    4.5071   -8.2037   15.8178 C   0  0  0  0  0  0  0  0  0  0  0  0
   10.6750   -3.9050   18.6724 C   0  0  0  0  0  0  0  0  0  0  0  0
    9.8385   -5.3296   18.1449 C   0  0  0  0  0  0  0  0  0  0  0  0
   10.0690   -4.5660   18.6959 C   0  0  0  0  0  0  0  0  0  0  0  0
    6.5866   -7.0874   17.1418 C   0  0  0  0  0  0  0  0  0  0  0  0
   10.3839   -5.9954   18.1067 C   0  0  0  0  0  0  0  0  0  0  0  0
    5.9742   -9.0830   15.4442 F   0  0  0  0  0  0  0  0  0  0  0  0
    4.8656   -7.6002   16.4358 C   0  0  0  0  0  0  0  0  0  0  0  0
    3.9515   -8.5839   15.3681 C   0  0  0  0  0  0  0  0  0  0  0  0
    8.8022   -7.0799   15.6016 F   0  0  0  0  0  0  0  0  0  0  0  0
    5.0646   -9.6330   18.0002 F   0  0  0  0  0  0  0  0  0  0  0  0
    6.0999   -8.6316   16.5903 C   0  0  0  0  0  0  0  0  0  0  0  0
M  END
$$$$

 Created by Python create_sdf_string function

 29 43  0  0  0  0  0  0  0  0999 V2000
    3.3847   -9.2674   15.1423 O   0  0  0  0  0  0  0  0  0  0  0  0
    3.1055   -5.5085   15.9204 S   0  0  0  0  0  0  0  0  0  0  0  0
    7.7645   -9.8508   17.5108 Se  0  0  0  0  0  0  0  0  0  0  0  0
    4.5395   -9.2445   15.4670 C   0  0  0  0  0  0  0  0  0  0  0  0
    5.5713   -6.8306   17.2797 F   0  0  0  0  0  0  0  0  0  0  0  0
    9.8063   -4.9261   18.6169 C   0  0  0  0  0  0  0  0  0  0  0  0
    8.5335   -6.4666   17.2971 C   0  0  0  0  0  0  0  0  0  0  0  0
    5.7661   -8.8567   17.7682 O   0  0  0  0  0  0  0  0  0  0  0  0
    3.6664   -7.6077   15.6281 C   0  0  0  0  0  0  0  0  0  0  0  0
    6.8740   -6.5873   16.4638 Cl  0  0  0  0  0  0  0  0  0  0  0  0
    5.9710   -6.9947   17.3767 O   0  0  0  0  0  0  0  0  0  0  0  0
   11.3478   -4.0553   20.0180 C   0  0  0  0  0  0  0  0  0  0  0  0
   11.0340   -5.9548   18.2634 C   0  0  0  0  0  0  0  0  0  0  0  0
    5.7205   -7.0302   17.4289 C   0  0  0  0  0  0  0  0  0  0  0  0
   12.9463   -6.5009   17.8202 F   0  0  0  0  0  0  0  0  0  0  0  0
    3.9465   -8.8255   15.3309 F   0  0  0  0  0  0  0  0  0  0  0  0
    5.8559   -8.5509   18.4088 He  0  0  0  0  0  0  0  0  0  0  0  0
    7.7895   -7.1358   16.8551 He  0  0  0  0  0  0  0  0  0  0  0  0
   10.5027   -2.7205   17.5501 He  0  0  0  0  0  0  0  0  0  0  0  0
   12.3171   -2.3526   16.8358 He  0  0  0  0  0  0  0  0  0  0  0  0
    4.0536   -5.8118   18.8114 He  0  0  0  0  0  0  0  0  0  0  0  0
    8.3590   -3.8421   19.8667 He  0  0  0  0  0  0  0  0  0  0  0  0
    5.9035   -8.3891   15.7445 He  0  0  0  0  0  0  0  0  0  0  0  0
   10.4034   -3.9986   19.2871 He  0  0  0  0  0  0  0  0  0  0  0  0
    7.0856   -9.4067   15.5772 He  0  0  0  0  0  0  0  0  0  0  0  0
    4.6118   -6.9850   16.3610 He  0  0  0  0  0  0  0  0  0  0  0  0
    8.8494   -6.8788   16.6593 He  0  0  0  0  0  0  0  0  0  0  0  0
    3.7380   -9.6067   16.8386 He  0  0  0  0  0  0  0  0  0  0  0  0
    7.4746   -7.3997   15.1148 He  0  0  0  0  0  0  0  0  0  0  0  0
  1  4  1  0
  1  5  1  0
  1 10  1  0
  1 11  3  0
  1 12  4  0
  1 15  3  0
  2  5  1  0
  2  6  2  0
  2  8  4  0
  3  6  1  0
  3  7  3  0
  3  9  2  0
  3 11  2  0
  3 15  4  0
  3 16  2  0
  4 10  1  0
  4 11  1  0
  4 14  2  0
  4 15  4  0
  4 16  2  0
  5 10  4  0
  5 14  2  0
  5 15  4  0
  6 11  3  0
  6 12  2  0
  6 14  4  0
  7  8  1  0
  7  9  3  0
  7 11  4  0
  7 12  3  0
  7 13  4  0
  7 14  3  0
  7 15  1  0
  8 13  4  0
  8 15  3  0
  9 10  4  0
  9 13  1  0
  9 14  1  0
  9 16  1  0
 10 16  4  0
 11 15  4  0
 12 14  3  0
 13 15  4  0
M  END
$$$$

 Created by Python create_sdf_string function

 29  1  0  0  0  0  0  0  0  0999 V2000
    2.9988   -8.9961   15.5308 C   0  0  0  0  0  0  0  0  0  0  0  0
    3.2898   -6.6700   15.6998 F   0  0  0  0  0  0  0  0  0  0  0  0
    6.0537   -8.4042   18.2072 F   0  0  0  0  0  0  0  0  0  0  0  0
    8.3303   -7.0840   17.0605 C   0  0  0  0  0  0  0  0  0  0  0  0
    7.8071   -8.9044   17.1262 F   0  0  0  0  0  0  0  0  0  0  0  0
    4.5155   -9.0029   15.7743 C   0  0  0  0  0  0  0  0  0  0  0  0
    5.6560   -7.1556   17.1182 F   0  0  0  0  0  0  0  0  0  0  0  0
   10.9085   -3.5923   17.5021 C   0  0  0  0  0  0  0  0  0  0  0  0
   10.0254   -4.9848   18.3817 C   0  0  0  0  0  0  0  0  0  0  0  0
    9.0743   -6.2120   17.6033 C   0  0  0  0  0  0  0  0  0  0  0  0
    5.8626   -8.7139   17.5331 F   0  0  0  0  0  0  0  0  0  0  0  0
   11.4750   -3.2468   17.1253 C   0  0  0  0  0  0  0  0  0  0  0  0
    4.5762   -6.9777   17.9573 F   0  0  0  0  0  0  0  0  0  0  0  0
    9.4992   -4.2785   19.8301 C   0  0  0  0  0  0  0  0  0  0  0  0
    3.6005   -7.8178   15.8748 C   0  0  0  0  0  0  0  0  0  0  0  0
    7.2839   -6.5829   16.4822 F   0  0  0  0  0  0  0  0  0  0  0  0
    6.5212   -7.1114   17.4972 F   0  0  0  0  0  0  0  0  0  0  0  0
    5.9217   -8.3833   15.8852 C   0  0  0  0  0  0  0  0  0  0  0  0
   11.0610   -4.0215   19.6796 C   0  0  0  0  0  0  0  0  0  0  0  0
   10.6471   -5.6770   18.1552 C   0  0  0  0  0  0  0  0  0  0  0  0
   10.6237   -4.0493   19.2080 C   0  0  0  0  0  0  0  0  0  0  0  0
    5.8811   -7.3537   17.4355 C   0  0  0  0  0  0  0  0  0  0  0  0
   11.7367   -5.5004   18.1313 C   0  0  0  0  0  0  0  0  0  0  0  0
    7.2179   -8.9698   15.6904 F   0  0  0  0  0  0  0  0  0  0  0  0
    4.3822   -7.2243   16.1595 C   0  0  0  0  0  0  0  0  0  0  0  0
    3.5762   -8.7905   15.7378 C   0  0  0  0  0  0  0  0  0  0  0  0
    9.0292   -6.6290   17.1265 F   0  0  0  0  0  0  0  0  0  0  0  0
    3.6796   -9.1572   16.8355 C   0  0  0  0  0  0  0  0  0  0  0  0
    7.7789   -7.7488   15.4905 F   0  0  0  0  0  0  0  0  0  0  0  0
  8 12  4  0
M  END
$$$$

 Created by Python create_sdf_string function

 29 41  0  0  0  0  0  0  0  0999 V2000
    2.5045   -8.0620   15.2344 C   0  0  0  0  0  0  0  0  0  0  0  0
    2.8758   -6.3753   16.4097 S   0  0  0  0  0  0  0  0  0  0  0  0
    7.5211   -7.9986   14.9530 F   0  0  0  0  0  0  0  0  0  0  0  0
   10.1577   -3.3320   17.3031 N   0  0  0  0  0  0  0  0  0  0  0  0
   10.1696   -7.0706   17.9419 N   0  0  0  0  0  0  0  0  0  0  0  0
    5.2113   -9.7140   17.8335 Cl  0  0  0  0  0  0  0  0  0  0  0  0
    8.5578   -4.1476   19.5119 N   0  0  0  0  0  0  0  0  0  0  0  0
    9.9822   -3.5031   19.4280 O   0  0  0  0  0  0  0  0  0  0  0  0
   11.0158   -6.2156   16.4520 Cl  0  0  0  0  0  0  0  0  0  0  0  0
    7.2263   -7.6537   14.9338 F   0  0  0  0  0  0  0  0  0  0  0  0
    4.0011   -7.9578   16.2524 F   0  0  0  0  0  0  0  0  0  0  0  0
    2.9929   -9.2365   14.2778 O   0  0  0  0  0  0  0  0  0  0  0  0
    9.3811   -6.9403   17.1635 N   0  0  0  0  0  0  0  0  0  0  0  0
    6.2561  -10.6392   17.9307 C   0  0  0  0  0  0  0  0  0  0  0  0
    7.3780   -8.0904   15.3536 O   0  0  0  0  0  0  0  0  0  0  0  0
    6.5231   -8.6714   18.4038 He  0  0  0  0  0  0  0  0  0  0  0  0
    8.4457   -6.4593   17.3044 He  0  0  0  0  0  0  0  0  0  0  0  0
    4.5565   -8.2948   15.6059 He  0  0  0  0  0  0  0  0  0  0  0  0
    5.8251   -6.7996   17.3386 He  0  0  0  0  0  0  0  0  0  0  0  0
    9.2101   -4.7832   19.0423 He  0  0  0  0  0  0  0  0  0  0  0  0
   12.2781   -1.1306   17.9615 He  0  0  0  0  0  0  0  0  0  0  0  0
    4.4474   -8.5267   18.5636 He  0  0  0  0  0  0  0  0  0  0  0  0
    3.0818   -6.8082   16.5927 He  0  0  0  0  0  0  0  0  0  0  0  0
    6.9269   -5.3511   19.5329 He  0  0  0  0  0  0  0  0  0  0  0  0
    6.4894   -6.9623   17.1437 He  0  0  0  0  0  0  0  0  0  0  0  0
    7.5288   -8.1540   17.1261 He  0  0  0  0  0  0  0  0  0  0  0  0
    9.4532   -3.9868   19.8218 He  0  0  0  0  0  0  0  0  0  0  0  0
    4.4786   -6.9372   18.1915 He  0  0  0  0  0  0  0  0  0  0  0  0
   11.8312   -6.5350   17.1705 He  0  0  0  0  0  0  0  0  0  0  0  0
  1  2  4  0
  1  4  3  0
  1 12  4  0
  1 14  3  0
  1 15  1  0
  2  3  2  0
  2  6  3  0
  2  9  4  0
  2 10  1  0
  2 12  3  0
  2 15  3  0
  3  4  4  0
  3  6  1  0
  3  9  4  0
  3 11  4  0
  3 15  3  0
  4  6  1  0
  4  7  1  0
  4 10  3  0
  4 11  2  0
  4 13  2  0
  4 14  3  0
  5  6  4  0
  5  9  4  0
  5 15  4  0
  6  8  1  0
  6  9  2  0
  6 14  2  0
  7 10  1  0
  7 14  1  0
  8 13  1  0
  8 15  1  0
  9 10  3  0
  9 12  2  0
 10 11  1  0
 10 12  3  0
 10 15  1  0
 11 15  4  0
 12 14  2  0
 13 14  3  0
 14 15  4  0
M  END
$$$$

 Created by Python create_sdf_string function

 29  3  0  0  0  0  0  0  0  0999 V2000
    2.8023   -8.2886   15.5259 C   0  0  0  0  0  0  0  0  0  0  0  0
    3.0572   -7.0928   16.0027 C   0  0  0  0  0  0  0  0  0  0  0  0
    6.7923   -8.5430   18.0394 F   0  0  0  0  0  0  0  0  0  0  0  0
    8.5627   -6.6247   17.3781 C   0  0  0  0  0  0  0  0  0  0  0  0
    7.8247   -8.2539   15.6168 F   0  0  0  0  0  0  0  0  0  0  0  0
    4.3572   -8.5432   15.8794 C   0  0  0  0  0  0  0  0  0  0  0  0
    6.4067   -7.1422   17.1101 C   0  0  0  0  0  0  0  0  0  0  0  0
   10.7943   -3.8287   17.3142 C   0  0  0  0  0  0  0  0  0  0  0  0
    9.7324   -5.1344   18.9446 C   0  0  0  0  0  0  0  0  0  0  0  0
    9.6073   -6.8642   18.0177 F   0  0  0  0  0  0  0  0  0  0  0  0
    5.3370   -9.2919   17.7656 F   0  0  0  0  0  0  0  0  0  0  0  0
   11.2855   -2.7641   17.8289 O   0  0  0  0  0  0  0  0  0  0  0  0
    4.7577   -8.8522   17.9238 F   0  0  0  0  0  0  0  0  0  0  0  0
    9.6209   -4.6213   19.5762 C   0  0  0  0  0  0  0  0  0  0  0  0
    3.3570   -7.3962   16.3301 C   0  0  0  0  0  0  0  0  0  0  0  0
    7.7123   -5.7750   18.8939 F   0  0  0  0  0  0  0  0  0  0  0  0
    6.7611   -7.0505   17.1032 C   0  0  0  0  0  0  0  0  0  0  0  0
    7.8354   -8.2638   17.1581 C   0  0  0  0  0  0  0  0  0  0  0  0
   10.5395   -3.8288   19.3384 C   0  0  0  0  0  0  0  0  0  0  0  0
   10.2923   -5.2850   17.0759 C   0  0  0  0  0  0  0  0  0  0  0  0
   10.1056   -4.2635   19.8426 C   0  0  0  0  0  0  0  0  0  0  0  0
    4.9259   -7.6193   17.7892 F   0  0  0  0  0  0  0  0  0  0  0  0
   10.5719   -5.6039   17.5926 C   0  0  0  0  0  0  0  0  0  0  0  0
    7.3732   -7.7760   15.5803 F   0  0  0  0  0  0  0  0  0  0  0  0
    4.0174   -8.1785   16.3332 C   0  0  0  0  0  0  0  0  0  0  0  0
    2.9533   -8.7511   15.3004 C   0  0  0  0  0  0  0  0  0  0  0  0
    9.2456   -6.9160   17.3201 C   0  0  0  0  0  0  0  0  0  0  0  0
    6.2157   -9.6812   17.4293 F   0  0  0  0  0  0  0  0  0  0  0  0
    7.5618   -8.3325   15.8915 C   0  0  0  0  0  0  0  0  0  0  0  0
  1 26  4  0
  7 17  1  0
  8 12  4  0
M  END
$$$$

 Created by Python create_sdf_string function

 29 41  0  0  0  0  0  0  0  0999 V2000
    6.2582   -8.5917   16.1703 Se  0  0  0  0  0  0  0  0  0  0  0  0
    8.7575   -5.6245   16.1055 C   0  0  0  0  0  0  0  0  0  0  0  0
    9.1054   -8.0384   18.2593 N   0  0  0  0  0  0  0  0  0  0  0  0
    7.8315   -6.6083   17.7467 P   0  0  0  0  0  0  0  0  0  0  0  0
   10.7876   -3.8159   18.1312 C   0  0  0  0  0  0  0  0  0  0  0  0
    9.4319   -7.1627   18.9173 C   0  0  0  0  0  0  0  0  0  0  0  0
   12.6529   -4.1188   16.7183 P   0  0  0  0  0  0  0  0  0  0  0  0
    4.6645   -8.5179   16.8469 Se  0  0  0  0  0  0  0  0  0  0  0  0
    8.6678   -5.2948   17.7461 Cl  0  0  0  0  0  0  0  0  0  0  0  0
   10.2019   -3.6497   19.1523 C   0  0  0  0  0  0  0  0  0  0  0  0
    8.9660   -5.7318   16.9986 B   0  0  0  0  0  0  0  0  0  0  0  0
    9.4626   -2.6108   19.1426 Se  0  0  0  0  0  0  0  0  0  0  0  0
    3.9267   -7.6500   17.2140 S   0  0  0  0  0  0  0  0  0  0  0  0
    6.7760  -10.8118   18.4773 N   0  0  0  0  0  0  0  0  0  0  0  0
    8.7328   -7.6995   16.3088 C   0  0  0  0  0  0  0  0  0  0  0  0
    2.2842   -8.0197   15.5697 He  0  0  0  0  0  0  0  0  0  0  0  0
    1.9357   -6.0349   15.4409 He  0  0  0  0  0  0  0  0  0  0  0  0
    5.2171   -9.9012   14.8523 He  0  0  0  0  0  0  0  0  0  0  0  0
    8.1843   -5.8428   17.2531 He  0  0  0  0  0  0  0  0  0  0  0  0
    4.8220   -7.1780   17.7255 He  0  0  0  0  0  0  0  0  0  0  0  0
    8.7787   -4.7998   20.0024 He  0  0  0  0  0  0  0  0  0  0  0  0
    3.4294   -7.0797   16.5004 He  0  0  0  0  0  0  0  0  0  0  0  0
    5.9356   -6.1771   18.4468 He  0  0  0  0  0  0  0  0  0  0  0  0
    8.8946   -8.9492   16.7122 He  0  0  0  0  0  0  0  0  0  0  0  0
    9.6004   -5.2780   18.9406 He  0  0  0  0  0  0  0  0  0  0  0  0
    7.0147   -7.9494   14.7143 He  0  0  0  0  0  0  0  0  0  0  0  0
    3.3338   -7.1908   16.1876 He  0  0  0  0  0  0  0  0  0  0  0  0
    1.7267  -10.0220   15.8706 He  0  0  0  0  0  0  0  0  0  0  0  0
    8.4675   -6.0451   19.1914 He  0  0  0  0  0  0  0  0  0  0  0  0
  1  2  1  0
  1  4  3  0
  1  7  1  0
  1  9  2  0
  1 12  2  0
  1 13  3  0
  1 15  3  0
  2  5  3  0
  2  7  1  0
  2  9  3  0
  2 15  2  0
  3  4  2  0
  3  9  4  0
  3 10  4  0
  3 13  1  0
  3 14  3  0
  4  5  4  0
  4  7  4  0
  4  8  1  0
  4 10  3  0
  4 11  2  0
  4 12  2  0
  4 13  4  0
  5  6  3  0
  5  7  4  0
  6  8  3  0
  6  9  1  0
  6 12  2  0
  6 14  3  0
  7 12  2  0
  7 13  2  0
  8  9  4  0
  8 13  3  0
  9 10  1  0
  9 11  1  0
 10 12  2  0
 10 13  4  0
 10 14  4  0
 10 15  1  0
 12 13  2  0
 13 15  2  0
M  END
$$$$

 Created by Python create_sdf_string function

 29  3  0  0  0  0  0  0  0  0999 V2000
    2.3156   -8.4231   15.8527 C   0  0  0  0  0  0  0  0  0  0  0  0
    2.3172   -7.0621   15.6782 C   0  0  0  0  0  0  0  0  0  0  0  0
    6.4299   -8.6121   16.1284 C   0  0  0  0  0  0  0  0  0  0  0  0
    8.9388   -5.5820   16.3050 F   0  0  0  0  0  0  0  0  0  0  0  0
    8.8898   -7.8098   18.0032 F   0  0  0  0  0  0  0  0  0  0  0  0
    5.2282   -9.3087   15.6596 C   0  0  0  0  0  0  0  0  0  0  0  0
    7.6969   -6.9473   17.5770 C   0  0  0  0  0  0  0  0  0  0  0  0
   10.9315   -3.8359   17.7675 C   0  0  0  0  0  0  0  0  0  0  0  0
    9.4497   -6.9615   18.5704 F   0  0  0  0  0  0  0  0  0  0  0  0
    8.2451   -6.2589   16.9506 C   0  0  0  0  0  0  0  0  0  0  0  0
    5.1148   -7.7007   17.4560 C   0  0  0  0  0  0  0  0  0  0  0  0
   11.2231   -3.7360   16.8492 C   0  0  0  0  0  0  0  0  0  0  0  0
    4.5464   -8.4812   16.6681 C   0  0  0  0  0  0  0  0  0  0  0  0
    9.8293   -4.6998   19.8948 C   0  0  0  0  0  0  0  0  0  0  0  0
    3.4782   -7.6304   16.3239 C   0  0  0  0  0  0  0  0  0  0  0  0
    9.3358   -5.4168   17.6088 C   0  0  0  0  0  0  0  0  0  0  0  0
    6.2778   -6.9964   18.1892 F   0  0  0  0  0  0  0  0  0  0  0  0
    8.6255   -8.5110   16.6405 F   0  0  0  0  0  0  0  0  0  0  0  0
   10.7237   -3.9402   19.1388 C   0  0  0  0  0  0  0  0  0  0  0  0
    9.2852   -5.4761   16.9542 C   0  0  0  0  0  0  0  0  0  0  0  0
   10.7260   -3.5834   19.1504 C   0  0  0  0  0  0  0  0  0  0  0  0
    4.0613   -7.9876   16.7286 C   0  0  0  0  0  0  0  0  0  0  0  0
   10.0908   -5.0821   18.9348 C   0  0  0  0  0  0  0  0  0  0  0  0
    7.1391   -8.3029   15.4762 F   0  0  0  0  0  0  0  0  0  0  0  0
    3.3348   -7.6645   16.0978 C   0  0  0  0  0  0  0  0  0  0  0  0
    2.1330   -9.0909   15.9184 C   0  0  0  0  0  0  0  0  0  0  0  0
    8.9998   -6.0937   18.7965 F   0  0  0  0  0  0  0  0  0  0  0  0
    6.6310   -9.2437   17.6375 F   0  0  0  0  0  0  0  0  0  0  0  0
    8.3622   -7.8037   16.1238 C   0  0  0  0  0  0  0  0  0  0  0  0
  1 26  4  0
  3 24  1  0
  8 12  4  0
M  END
$$$$

 Created by Python create_sdf_string function

 29 27  0  0  0  0  0  0  0  0999 V2000
    8.3346   -7.8717   15.0032 I   0  0  0  0  0  0  0  0  0  0  0  0
    9.0542   -9.2009   18.2219 F   0  0  0  0  0  0  0  0  0  0  0  0
    3.8465   -8.7848   15.6108 C   0  0  0  0  0  0  0  0  0  0  0  0
   10.4836   -4.0741   20.4723 Cl  0  0  0  0  0  0  0  0  0  0  0  0
    3.2777   -7.5239   16.1523 Cl  0  0  0  0  0  0  0  0  0  0  0  0
    7.0324   -6.3270   18.0834 F   0  0  0  0  0  0  0  0  0  0  0  0
    9.1237   -9.5080   17.0977 Br  0  0  0  0  0  0  0  0  0  0  0  0
   10.6292   -4.0632   19.2425 C   0  0  0  0  0  0  0  0  0  0  0  0
    8.9462   -5.9269   18.1985 F   0  0  0  0  0  0  0  0  0  0  0  0
    9.2162   -3.6741   18.9928 O   0  0  0  0  0  0  0  0  0  0  0  0
   10.1066   -6.0617   19.2411 C   0  0  0  0  0  0  0  0  0  0  0  0
    2.8347   -8.4536   16.3381 C   0  0  0  0  0  0  0  0  0  0  0  0
    1.7225   -9.0881   14.7430 O   0  0  0  0  0  0  0  0  0  0  0  0
    2.5576   -6.7760   13.6418 He  0  0  0  0  0  0  0  0  0  0  0  0
    0.3650   -6.6255   16.5959 He  0  0  0  0  0  0  0  0  0  0  0  0
    7.6933   -6.6385   16.3790 He  0  0  0  0  0  0  0  0  0  0  0  0
    7.6889   -7.5576   17.8242 He  0  0  0  0  0  0  0  0  0  0  0  0
   10.5405   -3.5978   18.4195 He  0  0  0  0  0  0  0  0  0  0  0  0
    9.8873   -7.2049   18.9632 He  0  0  0  0  0  0  0  0  0  0  0  0
    8.5224   -5.5941   16.7925 He  0  0  0  0  0  0  0  0  0  0  0  0
    4.3913   -8.2791   15.6079 He  0  0  0  0  0  0  0  0  0  0  0  0
   12.6635   -4.5343   16.9142 He  0  0  0  0  0  0  0  0  0  0  0  0
    4.4718   -6.9408   14.9417 He  0  0  0  0  0  0  0  0  0  0  0  0
    7.8863   -4.1129   17.6392 He  0  0  0  0  0  0  0  0  0  0  0  0
    4.0460   -7.7599   16.6864 He  0  0  0  0  0  0  0  0  0  0  0  0
    6.5625   -8.5426   15.4993 He  0  0  0  0  0  0  0  0  0  0  0  0
    8.2338   -4.3357   18.8022 He  0  0  0  0  0  0  0  0  0  0  0  0
    7.8618   -9.0779   20.8436 He  0  0  0  0  0  0  0  0  0  0  0  0
    9.8951   -7.5428   17.6273 He  0  0  0  0  0  0  0  0  0  0  0  0
  1  3  4  0
  1  4  3  0
  1  5  4  0
  1  6  2  0
  1  9  1  0
  1 11  1  0
  1 13  3  0
  2  5  2  0
  2  6  1  0
  2  9  1  0
  2 11  3  0
  3  6  1  0
  3  7  1  0
  3  8  1  0
  4  8  1  0
  4 11  2  0
  5 10  1  0
  5 12  3  0
  5 13  1  0
  6 11  2  0
  7  9  3  0
  7 10  4  0
  8  9  2  0
  9 11  4  0
 10 11  2  0
 10 13  2  0
 11 12  2  0
M  END
$$$$

 Created by Python create_sdf_string function

 29  1  0  0  0  0  0  0  0  0999 V2000
    2.2648   -7.0969   14.8240 C   0  0  0  0  0  0  0  0  0  0  0  0
    1.0842   -7.4842   15.8441 C   0  0  0  0  0  0  0  0  0  0  0  0
    8.0066   -8.0479   15.4810 F   0  0  0  0  0  0  0  0  0  0  0  0
    7.4464   -6.8733   16.1289 C   0  0  0  0  0  0  0  0  0  0  0  0
    8.8079   -8.2425   17.8323 F   0  0  0  0  0  0  0  0  0  0  0  0
    3.7621   -8.2959   15.9122 C   0  0  0  0  0  0  0  0  0  0  0  0
    7.4572   -7.6758   17.4333 C   0  0  0  0  0  0  0  0  0  0  0  0
   10.8896   -3.6454   18.2510 C   0  0  0  0  0  0  0  0  0  0  0  0
    9.7333   -6.8044   18.6801 F   0  0  0  0  0  0  0  0  0  0  0  0
    8.7861   -5.6477   16.7211 F   0  0  0  0  0  0  0  0  0  0  0  0
    4.4458   -8.2004   15.9734 C   0  0  0  0  0  0  0  0  0  0  0  0
   11.4630   -4.1301   17.3498 C   0  0  0  0  0  0  0  0  0  0  0  0
    4.4668   -7.3080   15.3651 C   0  0  0  0  0  0  0  0  0  0  0  0
   10.6686   -4.1469   20.4325 C   0  0  0  0  0  0  0  0  0  0  0  0
    3.1168   -7.8646   16.0017 C   0  0  0  0  0  0  0  0  0  0  0  0
    8.9722   -4.6946   16.8156 F   0  0  0  0  0  0  0  0  0  0  0  0
    6.9297   -6.8243   17.8281 F   0  0  0  0  0  0  0  0  0  0  0  0
    8.8327   -8.5755   16.8738 F   0  0  0  0  0  0  0  0  0  0  0  0
   10.8476   -4.1904   19.3802 C   0  0  0  0  0  0  0  0  0  0  0  0
    9.2967   -5.9259   17.9681 C   0  0  0  0  0  0  0  0  0  0  0  0
    9.9421   -4.0340   19.1798 C   0  0  0  0  0  0  0  0  0  0  0  0
    4.2879   -8.0350   16.6662 C   0  0  0  0  0  0  0  0  0  0  0  0
   10.1834   -5.7034   19.0769 C   0  0  0  0  0  0  0  0  0  0  0  0
    6.5785   -8.1968   15.7998 C   0  0  0  0  0  0  0  0  0  0  0  0
    2.7719   -8.3901   16.2119 C   0  0  0  0  0  0  0  0  0  0  0  0
    1.4149   -8.5056   15.2542 C   0  0  0  0  0  0  0  0  0  0  0  0
    9.2412   -4.7078   18.8541 C   0  0  0  0  0  0  0  0  0  0  0  0
    7.9926   -8.2279   18.9489 F   0  0  0  0  0  0  0  0  0  0  0  0
    9.3992   -7.1551   17.6872 F   0  0  0  0  0  0  0  0  0  0  0  0
  5 18  1  0
M  END
$$$$

 Created by Python create_sdf_string function

 29 67  0  0  0  0  0  0  0  0999 V2000
    1.3666   -7.1493   13.2395 F   0  0  0  0  0  0  0  0  0  0  0  0
    0.7261   -8.7378   14.3746 P   0  0  0  0  0  0  0  0  0  0  0  0
    7.0149   -8.9699   17.8567 N   0  0  0  0  0  0  0  0  0  0  0  0
    9.6783   -2.3097   18.6613 C   0  0  0  0  0  0  0  0  0  0  0  0
    9.9219   -7.4121   17.5416 S   0  0  0  0  0  0  0  0  0  0  0  0
    8.6595   -6.8478   16.5332 F   0  0  0  0  0  0  0  0  0  0  0  0
   11.7424   -4.7446   16.8475 C   0  0  0  0  0  0  0  0  0  0  0  0
    4.4652   -7.1321   16.4172 S   0  0  0  0  0  0  0  0  0  0  0  0
   11.1941   -5.1135   20.8652 Cl  0  0  0  0  0  0  0  0  0  0  0  0
    2.5020   -6.4799   13.9892 S   0  0  0  0  0  0  0  0  0  0  0  0
    8.9117   -7.6116   17.7831 F   0  0  0  0  0  0  0  0  0  0  0  0
    7.7723   -5.8017   17.4211 Br  0  0  0  0  0  0  0  0  0  0  0  0
    5.5677   -7.9398   14.6840 C   0  0  0  0  0  0  0  0  0  0  0  0
    6.1087   -9.3637   16.5793 O   0  0  0  0  0  0  0  0  0  0  0  0
    3.2232   -6.2574   15.7290 Cl  0  0  0  0  0  0  0  0  0  0  0  0
    0.9313   -8.1105   15.6869 S   0  0  0  0  0  0  0  0  0  0  0  0
    7.7729   -5.8177   18.5508 C   0  0  0  0  0  0  0  0  0  0  0  0
    8.8693   -7.6343   20.7795 Br  0  0  0  0  0  0  0  0  0  0  0  0
   11.0443   -9.3340   19.6456 F   0  0  0  0  0  0  0  0  0  0  0  0
    8.2716   -9.0450   14.0998 He  0  0  0  0  0  0  0  0  0  0  0  0
    6.1316   -7.3081   16.9319 He  0  0  0  0  0  0  0  0  0  0  0  0
    9.8287   -8.3578   17.0722 He  0  0  0  0  0  0  0  0  0  0  0  0
    4.8165   -8.5967   16.1523 He  0  0  0  0  0  0  0  0  0  0  0  0
    4.9642   -6.1702   15.5548 He  0  0  0  0  0  0  0  0  0  0  0  0
    8.8045   -4.4634   16.6602 He  0  0  0  0  0  0  0  0  0  0  0  0
    7.0557   -8.3397   19.3470 He  0  0  0  0  0  0  0  0  0  0  0  0
   11.5501   -3.6484   19.2289 He  0  0  0  0  0  0  0  0  0  0  0  0
    9.7390   -4.3504   19.7146 He  0  0  0  0  0  0  0  0  0  0  0  0
   10.0217   -6.5175   19.5011 He  0  0  0  0  0  0  0  0  0  0  0  0
  1  3  4  0
  1  9  1  0
  1 17  3  0
  1 19  2  0
  2  4  4  0
  2  6  4  0
  2  7  4  0
  2 13  2  0
  2 14  1  0
  3  4  3  0
  3  5  1  0
  3  6  2  0
  3  7  3  0
  3 10  3  0
  3 11  4  0
  3 13  3  0
  3 14  1  0
  3 18  4  0
  3 19  2  0
  4  5  3  0
  4  9  4  0
  4 13  2  0
  4 15  3  0
  5  6  1  0
  5  8  1  0
  5  9  4  0
  5 12  3  0
  5 16  1  0
  5 17  4  0
  5 19  1  0
  6 11  3  0
  6 12  1  0
  6 16  4  0
  6 17  2  0
  6 18  2  0
  7  8  1  0
  7 12  2  0
  7 17  2  0
  7 18  2  0
  8 10  1  0
  8 11  3  0
  8 15  4  0
  8 18  2  0
  9 10  2  0
  9 11  3  0
 10 13  3  0
 10 14  2  0
 10 16  3  0
 10 17  2  0
 10 19  1  0
 11 12  3  0
 11 13  4  0
 11 14  4  0
 11 15  3  0
 11 16  4  0
 12 13  2  0
 12 17  3  0
 13 18  3  0
 14 15  1  0
 14 17  2  0
 14 19  2  0
 15 17  4  0
 15 18  4  0
 15 19  2  0
 16 17  1  0
 16 19  3  0
 17 18  2  0
M  END
$$$$

 Created by Python create_sdf_string function

 29  6  0  0  0  0  0  0  0  0999 V2000
    1.0825   -7.3654   14.1884 C   0  0  0  0  0  0  0  0  0  0  0  0
    0.9744   -8.4158   14.8747 C   0  0  0  0  0  0  0  0  0  0  0  0
    7.9941   -8.6562   15.2935 F   0  0  0  0  0  0  0  0  0  0  0  0
    5.9626   -7.4921   16.7883 C   0  0  0  0  0  0  0  0  0  0  0  0
    9.1945   -8.1196   17.0652 F   0  0  0  0  0  0  0  0  0  0  0  0
    4.4539   -8.2191   16.1393 C   0  0  0  0  0  0  0  0  0  0  0  0
    6.9186   -8.3846   17.4424 C   0  0  0  0  0  0  0  0  0  0  0  0
   10.7124   -3.5480   18.3604 C   0  0  0  0  0  0  0  0  0  0  0  0
    9.4538   -6.9765   17.6401 C   0  0  0  0  0  0  0  0  0  0  0  0
    8.3904   -6.8263   16.4944 C   0  0  0  0  0  0  0  0  0  0  0  0
    4.9440   -6.9973   15.4842 C   0  0  0  0  0  0  0  0  0  0  0  0
   10.7030   -4.2729   17.2487 C   0  0  0  0  0  0  0  0  0  0  0  0
    3.9630   -7.6977   16.0369 C   0  0  0  0  0  0  0  0  0  0  0  0
   10.6983   -4.8051   20.2906 C   0  0  0  0  0  0  0  0  0  0  0  0
    2.3364   -6.9486   14.6195 C   0  0  0  0  0  0  0  0  0  0  0  0
    9.4408   -4.6463   16.7030 C   0  0  0  0  0  0  0  0  0  0  0  0
    7.0161   -7.9871   18.4644 F   0  0  0  0  0  0  0  0  0  0  0  0
    8.5614   -7.7166   17.6359 C   0  0  0  0  0  0  0  0  0  0  0  0
   10.9496   -3.7975   19.2606 C   0  0  0  0  0  0  0  0  0  0  0  0
    8.1495   -6.1154   17.0077 C   0  0  0  0  0  0  0  0  0  0  0  0
   10.2940   -4.3933   19.6536 C   0  0  0  0  0  0  0  0  0  0  0  0
    5.5045   -8.1001   15.5319 C   0  0  0  0  0  0  0  0  0  0  0  0
   10.0662   -6.0374   19.0100 C   0  0  0  0  0  0  0  0  0  0  0  0
    6.2637   -8.8737   16.5785 C   0  0  0  0  0  0  0  0  0  0  0  0
    3.1817   -7.1504   15.4075 C   0  0  0  0  0  0  0  0  0  0  0  0
    1.3599   -8.2421   15.2528 C   0  0  0  0  0  0  0  0  0  0  0  0
    8.5969   -6.0612   18.1968 C   0  0  0  0  0  0  0  0  0  0  0  0
    9.5447   -7.1180   19.5184 F   0  0  0  0  0  0  0  0  0  0  0  0
    9.9835   -8.1308   18.6589 F   0  0  0  0  0  0  0  0  0  0  0  0
  1  2  4  0
  1 15  4  0
  2 26  4  0
  7 24  1  0
 13 25  4  0
 15 25  4  0
M  END
$$$$

 Created by Python create_sdf_string function

 29 41  0  0  0  0  0  0  0  0999 V2000
   -0.3986   -7.4392   15.6331 C   0  0  0  0  0  0  0  0  0  0  0  0
    5.0745   -9.2736   17.1559 C   0  0  0  0  0  0  0  0  0  0  0  0
   10.4852   -2.1954   18.8587 O   0  0  0  0  0  0  0  0  0  0  0  0
    9.5276   -7.8655   17.6205 N   0  0  0  0  0  0  0  0  0  0  0  0
    7.5081   -7.0752   17.9601 B   0  0  0  0  0  0  0  0  0  0  0  0
    5.0926   -6.8585   15.5534 Cl  0  0  0  0  0  0  0  0  0  0  0  0
    9.2143   -5.4873   17.1009 Cl  0  0  0  0  0  0  0  0  0  0  0  0
   10.8112   -4.0067   17.4874 O   0  0  0  0  0  0  0  0  0  0  0  0
   10.3253   -6.4676   18.7260 O   0  0  0  0  0  0  0  0  0  0  0  0
   12.1715   -2.8622   17.6344 N   0  0  0  0  0  0  0  0  0  0  0  0
    8.2198   -5.3123   19.2293 C   0  0  0  0  0  0  0  0  0  0  0  0
   10.9775   -5.6941   19.9242 N   0  0  0  0  0  0  0  0  0  0  0  0
    1.2092   -7.4893   14.4985 O   0  0  0  0  0  0  0  0  0  0  0  0
    8.2573   -6.4043   17.5626 Br  0  0  0  0  0  0  0  0  0  0  0  0
   10.4350   -7.2250   19.9690 C   0  0  0  0  0  0  0  0  0  0  0  0
    9.4403   -9.5445   17.3879 C   0  0  0  0  0  0  0  0  0  0  0  0
    1.1726   -8.5663   15.2214 He  0  0  0  0  0  0  0  0  0  0  0  0
    7.1398   -9.6199   16.0523 He  0  0  0  0  0  0  0  0  0  0  0  0
    5.2360   -6.4857   16.8307 He  0  0  0  0  0  0  0  0  0  0  0  0
    8.9952   -5.8611   17.4946 He  0  0  0  0  0  0  0  0  0  0  0  0
    6.6218   -7.8562   15.7826 He  0  0  0  0  0  0  0  0  0  0  0  0
    3.5288   -7.6412   16.0068 He  0  0  0  0  0  0  0  0  0  0  0  0
   11.1944   -3.7994   19.8290 He  0  0  0  0  0  0  0  0  0  0  0  0
    1.9319   -7.3308   15.9720 He  0  0  0  0  0  0  0  0  0  0  0  0
    7.0952   -7.1871   18.3934 He  0  0  0  0  0  0  0  0  0  0  0  0
    4.2452   -9.5130   14.5380 He  0  0  0  0  0  0  0  0  0  0  0  0
   11.4485   -6.9417   19.9734 He  0  0  0  0  0  0  0  0  0  0  0  0
    5.5268  -10.1759   17.4774 He  0  0  0  0  0  0  0  0  0  0  0  0
    3.9774   -5.4366   16.7357 He  0  0  0  0  0  0  0  0  0  0  0  0
  1  3  2  0
  1 10  2  0
  1 13  2  0
  2  4  3  0
  2  5  1  0
  2  6  3  0
  2  9  3  0
  2 12  2  0
  2 15  4  0
  3  4  1  0
  3  8  1  0
  3 12  3  0
  3 14  1  0
  3 16  1  0
  4  5  2  0
  4  8  4  0
  4 10  3  0
  4 13  4  0
  4 15  1  0
  5  6  2  0
  5  9  3  0
  5 11  1  0
  6  8  2  0
  6 10  2  0
  6 11  2  0
  6 13  4  0
  6 14  2  0
  6 15  1  0
  7  8  3  0
  7 10  4  0
  8 12  4  0
  8 16  2  0
  9 15  3  0
  9 16  3  0
 10 16  2  0
 11 12  1  0
 11 13  4  0
 11 15  1  0
 12 13  1  0
 13 16  4  0
 15 16  4  0
M  END
$$$$

 Created by Python create_sdf_string function

 29  5  0  0  0  0  0  0  0  0999 V2000
    1.5719   -8.5133   15.3220 C   0  0  0  0  0  0  0  0  0  0  0  0
    0.5179   -7.6659   15.3545 C   0  0  0  0  0  0  0  0  0  0  0  0
    7.1311   -8.9345   15.9373 C   0  0  0  0  0  0  0  0  0  0  0  0
    5.5631   -7.3155   16.6008 C   0  0  0  0  0  0  0  0  0  0  0  0
    9.1648   -5.5939   17.2870 C   0  0  0  0  0  0  0  0  0  0  0  0
    5.1527   -8.6776   16.9745 C   0  0  0  0  0  0  0  0  0  0  0  0
    6.6999   -8.1045   15.9762 C   0  0  0  0  0  0  0  0  0  0  0  0
   11.0014   -3.0081   18.4970 O   0  0  0  0  0  0  0  0  0  0  0  0
    9.1371   -7.6105   17.7906 C   0  0  0  0  0  0  0  0  0  0  0  0
    7.2816   -7.2399   17.6315 C   0  0  0  0  0  0  0  0  0  0  0  0
    4.7768   -7.4249   15.8144 C   0  0  0  0  0  0  0  0  0  0  0  0
    9.4079   -5.0923   17.0372 C   0  0  0  0  0  0  0  0  0  0  0  0
    3.1914   -7.9133   15.9720 C   0  0  0  0  0  0  0  0  0  0  0  0
   11.0930   -3.9817   19.6065 C   0  0  0  0  0  0  0  0  0  0  0  0
    2.1082   -7.5455   15.9344 C   0  0  0  0  0  0  0  0  0  0  0  0
   10.8115   -3.8157   17.5967 C   0  0  0  0  0  0  0  0  0  0  0  0
    6.8361   -7.3241   17.9268 C   0  0  0  0  0  0  0  0  0  0  0  0
   10.2414   -6.1526   18.5986 C   0  0  0  0  0  0  0  0  0  0  0  0
   11.2684   -3.3787   17.5021 C   0  0  0  0  0  0  0  0  0  0  0  0
    8.9459   -5.5099   18.6329 C   0  0  0  0  0  0  0  0  0  0  0  0
   10.6806   -5.1462   19.5593 C   0  0  0  0  0  0  0  0  0  0  0  0
    3.9613   -8.8931   15.6016 C   0  0  0  0  0  0  0  0  0  0  0  0
   10.7295   -5.9675   19.3784 C   0  0  0  0  0  0  0  0  0  0  0  0
    5.6872   -9.2999   17.2515 C   0  0  0  0  0  0  0  0  0  0  0  0
    3.5385   -6.9999   15.8638 C   0  0  0  0  0  0  0  0  0  0  0  0
    1.1629   -7.8863   15.1420 C   0  0  0  0  0  0  0  0  0  0  0  0
    8.0779   -6.4796   17.2127 C   0  0  0  0  0  0  0  0  0  0  0  0
   10.0925   -6.7037   19.0313 C   0  0  0  0  0  0  0  0  0  0  0  0
    8.8099   -8.4792   17.1350 C   0  0  0  0  0  0  0  0  0  0  0  0
  3  7  1  0
  5 12  1  0
  6 24  1  0
  8 16  1  0
 16 19  1  0
M  END
$$$$

 Created by Python create_sdf_string function

 29 64  0  0  0  0  0  0  0  0999 V2000
    1.5492   -7.9016   15.7569 C   0  0  0  0  0  0  0  0  0  0  0  0
    6.2191  -10.4971   15.9255 C   0  0  0  0  0  0  0  0  0  0  0  0
    9.8392   -4.0668   16.9265 F   0  0  0  0  0  0  0  0  0  0  0  0
    5.8399   -7.1093   15.6156 F   0  0  0  0  0  0  0  0  0  0  0  0
    7.3261   -8.4526   15.5709 C   0  0  0  0  0  0  0  0  0  0  0  0
   10.4459   -3.1603   18.2865 C   0  0  0  0  0  0  0  0  0  0  0  0
    4.0087   -6.8413   15.8566 O   0  0  0  0  0  0  0  0  0  0  0  0
    2.9551   -9.2317   16.2993 C   0  0  0  0  0  0  0  0  0  0  0  0
   12.8647   -3.9018   20.5019 C   0  0  0  0  0  0  0  0  0  0  0  0
    2.7455   -6.7256   17.4262 P   0  0  0  0  0  0  0  0  0  0  0  0
    7.6121   -7.5789   17.4279 S   0  0  0  0  0  0  0  0  0  0  0  0
   10.7637   -8.4683   17.7655 C   0  0  0  0  0  0  0  0  0  0  0  0
    7.2792   -5.2113   17.1685 C   0  0  0  0  0  0  0  0  0  0  0  0
   11.1805   -4.0501   20.0238 C   0  0  0  0  0  0  0  0  0  0  0  0
    3.7848   -9.3245   16.0942 P   0  0  0  0  0  0  0  0  0  0  0  0
   12.8807   -6.1769   20.3301 C   0  0  0  0  0  0  0  0  0  0  0  0
    5.1198   -7.3211   15.6290 P   0  0  0  0  0  0  0  0  0  0  0  0
    0.0839   -9.5168   14.8470 C   0  0  0  0  0  0  0  0  0  0  0  0
    9.7561   -6.3389   20.9860 S   0  0  0  0  0  0  0  0  0  0  0  0
    9.7048   -8.8146   17.8533 C   0  0  0  0  0  0  0  0  0  0  0  0
    2.6442   -8.6076   16.7625 He  0  0  0  0  0  0  0  0  0  0  0  0
    4.4720   -7.7358   15.7822 He  0  0  0  0  0  0  0  0  0  0  0  0
    8.8896   -6.6604   17.4395 He  0  0  0  0  0  0  0  0  0  0  0  0
    8.0750   -7.5988   16.5316 He  0  0  0  0  0  0  0  0  0  0  0  0
    9.2397   -5.1152   15.4445 He  0  0  0  0  0  0  0  0  0  0  0  0
   10.0060   -4.6342   18.6295 He  0  0  0  0  0  0  0  0  0  0  0  0
   11.2508   -2.6328   18.0628 He  0  0  0  0  0  0  0  0  0  0  0  0
    5.5746  -11.2884   17.1501 He  0  0  0  0  0  0  0  0  0  0  0  0
    6.9657   -7.6655   17.3716 He  0  0  0  0  0  0  0  0  0  0  0  0
  1  3  3  0
  1  4  3  0
  1 12  3  0
  1 13  2  0
  1 17  4  0
  1 19  4  0
  2  3  3  0
  2  6  4  0
  2 11  3  0
  2 16  2  0
  2 17  3  0
  2 20  3  0
  3  4  2  0
  3  5  1  0
  3  6  4  0
  3 14  4  0
  3 18  2  0
  3 19  3  0
  4  5  4  0
  4  6  3  0
  4  7  1  0
  4  8  4  0
  4  9  1  0
  4 12  1  0
  4 15  2  0
  4 16  3  0
  4 19  4  0
  4 20  4  0
  5 11  4  0
  5 13  3  0
  5 15  3  0
  5 16  2  0
  6  8  3  0
  6 11  2  0
  6 18  1  0
  7  8  4  0
  7 12  3  0
  7 13  4  0
  7 15  2  0
  7 20  1  0
  8 10  1  0
  8 13  2  0
  8 15  2  0
  8 17  3  0
  8 20  4  0
  9 12  2  0
 10 19  1  0
 11 13  2  0
 11 17  3  0
 12 14  1  0
 12 15  2  0
 13 14  4  0
 13 16  4  0
 13 18  4  0
 13 19  2  0
 13 20  2  0
 14 17  2  0
 14 20  2  0
 15 18  4  0
 15 19  4  0
 16 17  2  0
 16 19  3  0
 16 20  4  0
 18 20  2  0
M  END
$$$$

 Created by Python create_sdf_string function

 29  5  0  0  0  0  0  0  0  0999 V2000
    2.5490   -9.0814   16.3712 C   0  0  0  0  0  0  0  0  0  0  0  0
    1.5272   -8.1735   15.8875 C   0  0  0  0  0  0  0  0  0  0  0  0
    5.9891   -9.7397   16.5196 C   0  0  0  0  0  0  0  0  0  0  0  0
    4.6325   -7.9015   16.0431 C   0  0  0  0  0  0  0  0  0  0  0  0
    9.8998   -4.2445   16.8702 C   0  0  0  0  0  0  0  0  0  0  0  0
    5.8261   -7.2840   15.8295 C   0  0  0  0  0  0  0  0  0  0  0  0
    7.5744   -8.3626   15.8649 C   0  0  0  0  0  0  0  0  0  0  0  0
   10.6504   -3.7974   18.0578 C   0  0  0  0  0  0  0  0  0  0  0  0
    9.0872   -6.5118   17.5069 C   0  0  0  0  0  0  0  0  0  0  0  0
    8.0505   -7.6088   16.5086 C   0  0  0  0  0  0  0  0  0  0  0  0
    4.0064   -7.4222   15.8723 C   0  0  0  0  0  0  0  0  0  0  0  0
    9.1870   -4.9294   16.3338 C   0  0  0  0  0  0  0  0  0  0  0  0
    2.8876   -8.9423   16.2808 C   0  0  0  0  0  0  0  0  0  0  0  0
   11.7250   -3.9989   20.5914 C   0  0  0  0  0  0  0  0  0  0  0  0
    2.6737   -7.2403   16.1676 C   0  0  0  0  0  0  0  0  0  0  0  0
   10.4350   -4.8867   18.6931 C   0  0  0  0  0  0  0  0  0  0  0  0
    7.4354   -7.6403   17.4650 C   0  0  0  0  0  0  0  0  0  0  0  0
    9.6175   -7.7690   18.1178 C   0  0  0  0  0  0  0  0  0  0  0  0
   10.9409   -3.2073   18.1613 C   0  0  0  0  0  0  0  0  0  0  0  0
    7.9766   -5.9598   16.6667 C   0  0  0  0  0  0  0  0  0  0  0  0
   11.1600   -3.8509   19.8716 C   0  0  0  0  0  0  0  0  0  0  0  0
    3.6703   -9.1542   16.4405 C   0  0  0  0  0  0  0  0  0  0  0  0
   11.7721   -5.1736   20.2959 C   0  0  0  0  0  0  0  0  0  0  0  0
    5.4669  -10.1379   17.0469 C   0  0  0  0  0  0  0  0  0  0  0  0
    5.2373   -7.5935   16.0068 C   0  0  0  0  0  0  0  0  0  0  0  0
    0.8616   -9.2079   15.6994 C   0  0  0  0  0  0  0  0  0  0  0  0
    6.6420   -8.0779   17.2323 C   0  0  0  0  0  0  0  0  0  0  0  0
   10.7945   -5.6329   19.7952 C   0  0  0  0  0  0  0  0  0  0  0  0
    9.3049   -8.0775   17.9603 C   0  0  0  0  0  0  0  0  0  0  0  0
  3 24  1  0
  8 19  4  0
 14 21  4  0
 17 27  1  0
 18 29  1  0
M  END
$$$$

 Created by Python create_sdf_string function

 29 45  0  0  0  0  0  0  0  0999 V2000
    2.7594   -9.9090   17.2188 F   0  0  0  0  0  0  0  0  0  0  0  0
    1.7252   -7.0827   14.9903 F   0  0  0  0  0  0  0  0  0  0  0  0
    5.2622   -8.8601   16.0788 Br  0  0  0  0  0  0  0  0  0  0  0  0
    6.1991   -6.4387   16.1609 O   0  0  0  0  0  0  0  0  0  0  0  0
   10.2137   -5.5139   17.7732 P   0  0  0  0  0  0  0  0  0  0  0  0
    9.5615   -7.1221   16.3573 S   0  0  0  0  0  0  0  0  0  0  0  0
    5.0562   -7.5196   16.4721 Br  0  0  0  0  0  0  0  0  0  0  0  0
    8.4735   -5.1413   13.9831 P   0  0  0  0  0  0  0  0  0  0  0  0
    2.8442   -8.3730   15.8147 O   0  0  0  0  0  0  0  0  0  0  0  0
   11.0576   -4.2302   18.9297 P   0  0  0  0  0  0  0  0  0  0  0  0
    3.5501   -8.6233   14.4177 Se  0  0  0  0  0  0  0  0  0  0  0  0
   14.2598   -5.7805   19.0055 Br  0  0  0  0  0  0  0  0  0  0  0  0
    5.2521   -7.0779   15.2495 Cl  0  0  0  0  0  0  0  0  0  0  0  0
    1.8288   -9.5587   16.6503 I   0  0  0  0  0  0  0  0  0  0  0  0
    5.3582   -8.3008   18.4808 Cl  0  0  0  0  0  0  0  0  0  0  0  0
    6.8379   -8.2180   17.6031 C   0  0  0  0  0  0  0  0  0  0  0  0
    4.2998   -8.4090   17.2261 He  0  0  0  0  0  0  0  0  0  0  0  0
   10.5273   -3.3339   17.2110 He  0  0  0  0  0  0  0  0  0  0  0  0
    7.0400   -8.5660   16.0256 He  0  0  0  0  0  0  0  0  0  0  0  0
   10.1701   -6.7288   15.9995 He  0  0  0  0  0  0  0  0  0  0  0  0
   11.9053   -4.6187   21.2210 He  0  0  0  0  0  0  0  0  0  0  0  0
    3.9866   -7.1348   16.0536 He  0  0  0  0  0  0  0  0  0  0  0  0
   10.4053   -5.2689   18.2619 He  0  0  0  0  0  0  0  0  0  0  0  0
    8.2613   -7.6748   15.3754 He  0  0  0  0  0  0  0  0  0  0  0  0
   10.9801   -7.1384   17.8058 He  0  0  0  0  0  0  0  0  0  0  0  0
   11.2209   -3.6340   17.3143 He  0  0  0  0  0  0  0  0  0  0  0  0
    5.9540   -5.3821   17.4649 He  0  0  0  0  0  0  0  0  0  0  0  0
    6.9744   -9.8793   17.8032 He  0  0  0  0  0  0  0  0  0  0  0  0
    8.8597   -6.9779   18.2901 He  0  0  0  0  0  0  0  0  0  0  0  0
  1 10  4  0
  1 11  1  0
  1 15  2  0
  2  4  4  0
  2  5  4  0
  2 10  1  0
  2 11  3  0
  2 14  2  0
  3  5  2  0
  3  7  2  0
  3  9  3  0
  3 10  1  0
  3 12  4  0
  3 13  2  0
  3 15  3  0
  4  5  4  0
  4  7  3  0
  4  8  1  0
  4  9  2  0
  4 12  2  0
  5  7  4  0
  5  8  1  0
  5 11  2  0
  6  7  4  0
  6 11  2  0
  6 12  3  0
  6 13  1  0
  6 16  2  0
  7  8  2  0
  7 10  3  0
  7 11  4  0
  7 14  3  0
  7 16  1  0
  8 11  4  0
  8 13  4  0
  8 16  4  0
  9 10  2  0
  9 15  1  0
 10 11  2  0
 10 12  2  0
 11 13  1  0
 12 15  4  0
 13 15  4  0
 14 16  2  0
 15 16  4  0
M  END
$$$$

 Created by Python create_sdf_string function

 29  2  0  0  0  0  0  0  0  0999 V2000
    2.8711   -9.5374   17.1446 C   0  0  0  0  0  0  0  0  0  0  0  0
    2.1435   -7.6735   15.4142 C   0  0  0  0  0  0  0  0  0  0  0  0
    5.2848   -8.7845   16.1540 C   0  0  0  0  0  0  0  0  0  0  0  0
    4.2854   -8.7709   16.9974 C   0  0  0  0  0  0  0  0  0  0  0  0
   10.6139   -3.8784   17.2649 C   0  0  0  0  0  0  0  0  0  0  0  0
    6.8004   -6.5843   16.0300 C   0  0  0  0  0  0  0  0  0  0  0  0
    7.4130   -8.3707   15.9627 C   0  0  0  0  0  0  0  0  0  0  0  0
   10.1554   -5.3251   17.7605 C   0  0  0  0  0  0  0  0  0  0  0  0
    9.4834   -6.2255   16.7941 C   0  0  0  0  0  0  0  0  0  0  0  0
    8.9837   -7.1859   16.8287 C   0  0  0  0  0  0  0  0  0  0  0  0
    5.1819   -8.0722   16.5653 C   0  0  0  0  0  0  0  0  0  0  0  0
    8.2600   -5.3763   15.8473 C   0  0  0  0  0  0  0  0  0  0  0  0
    2.7759   -8.5440   16.0665 C   0  0  0  0  0  0  0  0  0  0  0  0
   11.5283   -4.5390   20.3831 O   0  0  0  0  0  0  0  0  0  0  0  0
    3.9499   -7.6191   15.9533 C   0  0  0  0  0  0  0  0  0  0  0  0
   10.5503   -5.1913   18.5753 C   0  0  0  0  0  0  0  0  0  0  0  0
    8.1923   -7.9418   15.5895 F   0  0  0  0  0  0  0  0  0  0  0  0
   10.4208   -6.5282   18.3036 C   0  0  0  0  0  0  0  0  0  0  0  0
   11.0010   -3.8663   17.5686 C   0  0  0  0  0  0  0  0  0  0  0  0
    6.8286   -6.5686   17.5128 F   0  0  0  0  0  0  0  0  0  0  0  0
   11.1397   -4.4997   19.1271 C   0  0  0  0  0  0  0  0  0  0  0  0
    3.5152   -8.4483   15.3987 C   0  0  0  0  0  0  0  0  0  0  0  0
   12.7015   -5.6405   19.0604 O   0  0  0  0  0  0  0  0  0  0  0  0
    6.9387   -9.0088   17.4322 C   0  0  0  0  0  0  0  0  0  0  0  0
    5.1937   -7.4610   15.4847 C   0  0  0  0  0  0  0  0  0  0  0  0
    2.0060   -9.3023   16.6660 C   0  0  0  0  0  0  0  0  0  0  0  0
    5.5892   -8.5729   18.2149 C   0  0  0  0  0  0  0  0  0  0  0  0
    9.1357   -7.0004   18.0808 C   0  0  0  0  0  0  0  0  0  0  0  0
    6.9764   -8.1076   17.4923 C   0  0  0  0  0  0  0  0  0  0  0  0
  1 26  1  0
  7 17  1  0
M  END
$$$$

 Created by Python create_sdf_string function

 29 34  0  0  0  0  0  0  0  0999 V2000
    3.3373   -5.7707   16.6061 C   0  0  0  0  0  0  0  0  0  0  0  0
    8.4280   -7.3132   16.4893 Cl  0  0  0  0  0  0  0  0  0  0  0  0
   10.9217   -4.6146   18.2646 C   0  0  0  0  0  0  0  0  0  0  0  0
    9.9866   -4.9569   16.6691 F   0  0  0  0  0  0  0  0  0  0  0  0
    9.3571   -6.4037   17.1357 C   0  0  0  0  0  0  0  0  0  0  0  0
    8.6597   -4.7788   17.3982 F   0  0  0  0  0  0  0  0  0  0  0  0
    2.4173   -7.6712   15.4598 C   0  0  0  0  0  0  0  0  0  0  0  0
   12.4324   -4.4349   20.8107 C   0  0  0  0  0  0  0  0  0  0  0  0
   11.0906   -6.2113   19.9983 N   0  0  0  0  0  0  0  0  0  0  0  0
   10.9053   -3.5349   16.2059 C   0  0  0  0  0  0  0  0  0  0  0  0
   13.3620   -4.5620   17.3977 F   0  0  0  0  0  0  0  0  0  0  0  0
    4.1113   -8.6175   15.5832 C   0  0  0  0  0  0  0  0  0  0  0  0
    5.1785   -8.3129   19.3118 S   0  0  0  0  0  0  0  0  0  0  0  0
    9.6010   -8.0372   19.3964 S   0  0  0  0  0  0  0  0  0  0  0  0
    7.2808   -6.0959   18.4430 N   0  0  0  0  0  0  0  0  0  0  0  0
    4.5627   -9.9433   16.8129 He  0  0  0  0  0  0  0  0  0  0  0  0
    5.2982   -8.4182   15.7554 He  0  0  0  0  0  0  0  0  0  0  0  0
    5.7963   -7.7435   17.5529 He  0  0  0  0  0  0  0  0  0  0  0  0
   10.9361   -5.3514   17.0920 He  0  0  0  0  0  0  0  0  0  0  0  0
    7.5791   -5.3967   16.8216 He  0  0  0  0  0  0  0  0  0  0  0  0
    4.6788   -8.7792   15.5014 He  0  0  0  0  0  0  0  0  0  0  0  0
    3.9691   -8.2151   15.9006 He  0  0  0  0  0  0  0  0  0  0  0  0
    9.9386   -4.7917   20.3482 He  0  0  0  0  0  0  0  0  0  0  0  0
    9.0814   -9.2492   14.3271 He  0  0  0  0  0  0  0  0  0  0  0  0
    6.3706   -8.1016   17.3011 He  0  0  0  0  0  0  0  0  0  0  0  0
   10.6887   -4.6129   19.2009 He  0  0  0  0  0  0  0  0  0  0  0  0
    4.7457   -8.0030   14.8910 He  0  0  0  0  0  0  0  0  0  0  0  0
    7.0288   -9.8429   17.1305 He  0  0  0  0  0  0  0  0  0  0  0  0
    3.8510  -10.7108   16.7994 He  0  0  0  0  0  0  0  0  0  0  0  0
  1  7  2  0
  1  9  4  0
  1 15  3  0
  2  6  1  0
  2  7  2  0
  2 10  2  0
  2 11  3  0
  2 12  3  0
  2 15  2  0
  3  6  1  0
  3 12  2  0
  3 14  4  0
  4  5  2  0
  4  7  2  0
  4  9  2  0
  4 12  3  0
  4 14  4  0
  5 10  3  0
  6  7  3  0
  6  9  3  0
  6 10  3  0
  6 15  3  0
  7 12  3  0
  7 13  4  0
  8 12  1  0
  8 14  2  0
  9 11  1  0
  9 12  2  0
  9 13  4  0
 10 13  4  0
 10 15  4  0
 11 14  4  0
 11 15  4  0
 12 13  1  0
M  END
$$$$

 Created by Python create_sdf_string function

 29  2  0  0  0  0  0  0  0  0999 V2000
    4.6612   -9.4800   17.0436 C   0  0  0  0  0  0  0  0  0  0  0  0
    3.4445   -7.1489   15.8567 C   0  0  0  0  0  0  0  0  0  0  0  0
    5.4955   -8.5896   15.9428 C   0  0  0  0  0  0  0  0  0  0  0  0
    6.2034   -7.8268   17.5271 C   0  0  0  0  0  0  0  0  0  0  0  0
   10.7002   -4.7720   17.5074 C   0  0  0  0  0  0  0  0  0  0  0  0
    7.8805   -6.0647   16.5235 C   0  0  0  0  0  0  0  0  0  0  0  0
    8.2859   -7.6607   16.3942 C   0  0  0  0  0  0  0  0  0  0  0  0
   10.7947   -4.6174   18.3729 C   0  0  0  0  0  0  0  0  0  0  0  0
    9.9816   -4.6842   16.7790 C   0  0  0  0  0  0  0  0  0  0  0  0
    9.1588   -6.4805   17.3482 C   0  0  0  0  0  0  0  0  0  0  0  0
    4.7760   -8.7465   15.8987 C   0  0  0  0  0  0  0  0  0  0  0  0
    9.1651   -5.1805   17.0144 C   0  0  0  0  0  0  0  0  0  0  0  0
    2.7546   -8.0997   15.7158 C   0  0  0  0  0  0  0  0  0  0  0  0
   11.5587   -4.3842   20.5167 C   0  0  0  0  0  0  0  0  0  0  0  0
    3.6368   -8.5008   16.1485 C   0  0  0  0  0  0  0  0  0  0  0  0
   10.4348   -4.6455   20.1995 C   0  0  0  0  0  0  0  0  0  0  0  0
    8.2323   -8.5333   15.2126 C   0  0  0  0  0  0  0  0  0  0  0  0
   10.5609   -5.5599   19.5793 C   0  0  0  0  0  0  0  0  0  0  0  0
   10.9589   -3.8360   16.4499 C   0  0  0  0  0  0  0  0  0  0  0  0
    6.8101   -8.0232   17.2015 C   0  0  0  0  0  0  0  0  0  0  0  0
   10.7727   -4.6076   19.3117 C   0  0  0  0  0  0  0  0  0  0  0  0
    4.9347   -8.2596   15.4241 C   0  0  0  0  0  0  0  0  0  0  0  0
   12.0418   -4.1983   17.5160 C   0  0  0  0  0  0  0  0  0  0  0  0
    7.0368   -8.9739   16.9451 C   0  0  0  0  0  0  0  0  0  0  0  0
    3.9967   -8.6340   15.9210 C   0  0  0  0  0  0  0  0  0  0  0  0
    3.9312   -9.8001   17.2544 C   0  0  0  0  0  0  0  0  0  0  0  0
    5.8551   -8.5293   18.4596 C   0  0  0  0  0  0  0  0  0  0  0  0
    9.2606   -7.6113   18.3297 C   0  0  0  0  0  0  0  0  0  0  0  0
    7.5707   -6.5224   17.9517 C   0  0  0  0  0  0  0  0  0  0  0  0
  1 26  1  0
  7 17  1  0
M  END
$$$$

 Created by Python create_sdf_string function

 29 32  0  0  0  0  0  0  0  0999 V2000
    5.1886   -9.3180   15.7635 B   0  0  0  0  0  0  0  0  0  0  0  0
    8.2698   -5.4971   19.2538 Se  0  0  0  0  0  0  0  0  0  0  0  0
    8.8384   -7.9013   15.1239 C   0  0  0  0  0  0  0  0  0  0  0  0
   10.0268   -5.1489   17.1804 C   0  0  0  0  0  0  0  0  0  0  0  0
   10.1907   -4.7501   17.0299 P   0  0  0  0  0  0  0  0  0  0  0  0
    4.6952   -8.7213   14.0634 F   0  0  0  0  0  0  0  0  0  0  0  0
    8.9655   -5.9376   16.0962 S   0  0  0  0  0  0  0  0  0  0  0  0
   12.2313   -3.3779   20.2641 P   0  0  0  0  0  0  0  0  0  0  0  0
    2.6998   -9.0687   17.1078 C   0  0  0  0  0  0  0  0  0  0  0  0
    8.7592   -5.4254   18.7918 C   0  0  0  0  0  0  0  0  0  0  0  0
   12.7231   -5.2134   16.6743 F   0  0  0  0  0  0  0  0  0  0  0  0
    5.4651   -9.7147   15.4168 C   0  0  0  0  0  0  0  0  0  0  0  0
    3.8067  -11.0478   16.6081 Cl  0  0  0  0  0  0  0  0  0  0  0  0
    5.3146  -10.6636   17.8170 He  0  0  0  0  0  0  0  0  0  0  0  0
    2.8665   -7.0433   16.0584 He  0  0  0  0  0  0  0  0  0  0  0  0
    6.9382   -8.2893   16.7983 He  0  0  0  0  0  0  0  0  0  0  0  0
    8.7100   -5.5577   18.4272 He  0  0  0  0  0  0  0  0  0  0  0  0
    9.4140   -6.6237   17.9440 He  0  0  0  0  0  0  0  0  0  0  0  0
    2.1601  -10.3503   15.1767 He  0  0  0  0  0  0  0  0  0  0  0  0
   11.9805   -4.0351   20.1500 He  0  0  0  0  0  0  0  0  0  0  0  0
    8.6011   -7.7506   16.0978 He  0  0  0  0  0  0  0  0  0  0  0  0
    5.1269   -7.0303   16.1181 He  0  0  0  0  0  0  0  0  0  0  0  0
   11.0672   -3.3685   21.2673 He  0  0  0  0  0  0  0  0  0  0  0  0
    4.6171   -6.8091   15.5604 He  0  0  0  0  0  0  0  0  0  0  0  0
   10.8573   -4.2628   16.7856 He  0  0  0  0  0  0  0  0  0  0  0  0
    6.1663   -7.8562   16.7791 He  0  0  0  0  0  0  0  0  0  0  0  0
    6.5219   -8.3428   17.9820 He  0  0  0  0  0  0  0  0  0  0  0  0
    9.5018   -7.7792   18.4929 He  0  0  0  0  0  0  0  0  0  0  0  0
    7.6517   -6.1972   16.7119 He  0  0  0  0  0  0  0  0  0  0  0  0
  1  5  4  0
  1  6  2  0
  1  8  2  0
  1 11  4  0
  1 12  3  0
  2  8  1  0
  2 10  1  0
  2 13  3  0
  3  4  3  0
  3  5  3  0
  3  8  1  0
  3 10  4  0
  3 12  4  0
  4  7  2  0
  4 10  1  0
  4 13  3  0
  5  8  3  0
  5 11  2  0
  5 12  4  0
  6  8  2  0
  6 11  1  0
  6 12  1  0
  6 13  3  0
  7  8  2  0
  7 10  3  0
  7 12  4  0
  7 13  3  0
  8 10  1  0
  8 11  4  0
  9 11  4  0
 10 13  4  0
 11 13  3  0
M  END
$$$$

 Created by Python create_sdf_string function

 29  8  0  0  0  0  0  0  0  0999 V2000
    5.0840   -9.8010   17.5800 C   0  0  0  0  0  0  0  0  0  0  0  0
    3.3259   -7.7633   16.0124 C   0  0  0  0  0  0  0  0  0  0  0  0
    5.1033   -9.0889   16.0445 C   0  0  0  0  0  0  0  0  0  0  0  0
    6.9838   -8.3003   16.7888 C   0  0  0  0  0  0  0  0  0  0  0  0
    9.1817   -5.3778   19.0449 C   0  0  0  0  0  0  0  0  0  0  0  0
    9.3146   -5.6651   18.4015 C   0  0  0  0  0  0  0  0  0  0  0  0
    8.2802   -8.0545   15.4801 C   0  0  0  0  0  0  0  0  0  0  0  0
   10.1245   -4.9789   17.4525 C   0  0  0  0  0  0  0  0  0  0  0  0
   10.5671   -4.2964   17.1582 C   0  0  0  0  0  0  0  0  0  0  0  0
    9.4674   -6.7071   17.9977 C   0  0  0  0  0  0  0  0  0  0  0  0
    4.5800   -8.7874   15.2293 C   0  0  0  0  0  0  0  0  0  0  0  0
    8.8900   -5.8308   16.3854 C   0  0  0  0  0  0  0  0  0  0  0  0
    2.4561   -9.3613   15.7954 O   0  0  0  0  0  0  0  0  0  0  0  0
   11.2848   -3.9529   20.1948 C   0  0  0  0  0  0  0  0  0  0  0  0
    3.1069   -9.1708   16.6848 C   0  0  0  0  0  0  0  0  0  0  0  0
   11.2806   -4.1692   20.0907 C   0  0  0  0  0  0  0  0  0  0  0  0
    8.2734   -7.9247   16.3029 C   0  0  0  0  0  0  0  0  0  0  0  0
    9.6182   -5.3542   18.8227 C   0  0  0  0  0  0  0  0  0  0  0  0
   11.6227   -4.1652   17.1992 C   0  0  0  0  0  0  0  0  0  0  0  0
    5.3091   -7.4976   16.2651 C   0  0  0  0  0  0  0  0  0  0  0  0
   10.8137   -4.0096   20.8277 C   0  0  0  0  0  0  0  0  0  0  0  0
    4.5587   -7.3769   15.9219 C   0  0  0  0  0  0  0  0  0  0  0  0
   10.8147   -4.0273   16.9576 C   0  0  0  0  0  0  0  0  0  0  0  0
    6.1432   -7.9378   16.7867 C   0  0  0  0  0  0  0  0  0  0  0  0
    5.4597   -9.3287   15.8168 C   0  0  0  0  0  0  0  0  0  0  0  0
    3.9137   -9.9082   17.1372 C   0  0  0  0  0  0  0  0  0  0  0  0
    6.7154   -8.2013   17.7563 C   0  0  0  0  0  0  0  0  0  0  0  0
    9.1420   -7.6095   18.1605 C   0  0  0  0  0  0  0  0  0  0  0  0
    7.7043   -6.4508   16.6504 C   0  0  0  0  0  0  0  0  0  0  0  0
  1 26  1  0
  2 22  1  0
  7 17  1  0
  9 23  1  0
 10 28  1  0
 13 15  1  0
 14 16  1  0
 14 21  1  0
M  END
$$$$

 Created by Python create_sdf_string function

 29 50  0  0  0  0  0  0  0  0999 V2000
    4.6121  -10.5892   17.2232 C   0  0  0  0  0  0  0  0  0  0  0  0
    3.6603   -8.0024   16.3874 O   0  0  0  0  0  0  0  0  0  0  0  0
    6.6220   -8.6418   19.0782 F   0  0  0  0  0  0  0  0  0  0  0  0
    9.6740   -5.3875   17.2847 P   0  0  0  0  0  0  0  0  0  0  0  0
    7.9824   -6.9712   16.3363 C   0  0  0  0  0  0  0  0  0  0  0  0
   10.1256   -2.8428   17.2587 C   0  0  0  0  0  0  0  0  0  0  0  0
   10.3646   -6.0312   17.6772 C   0  0  0  0  0  0  0  0  0  0  0  0
    3.6471   -9.0576   15.4884 C   0  0  0  0  0  0  0  0  0  0  0  0
   12.3499   -3.2544   21.0294 N   0  0  0  0  0  0  0  0  0  0  0  0
    3.1385  -10.4299   17.4296 P   0  0  0  0  0  0  0  0  0  0  0  0
    7.4511   -6.9704   15.4394 C   0  0  0  0  0  0  0  0  0  0  0  0
    8.6768   -6.0063   19.0419 B   0  0  0  0  0  0  0  0  0  0  0  0
   12.4319   -6.0322   15.7547 O   0  0  0  0  0  0  0  0  0  0  0  0
   12.6526   -3.4396   20.0651 C   0  0  0  0  0  0  0  0  0  0  0  0
    4.5079   -7.9867   14.9438 C   0  0  0  0  0  0  0  0  0  0  0  0
   10.3098   -5.4372   14.8442 C   0  0  0  0  0  0  0  0  0  0  0  0
    6.3519   -7.0033   16.1768 P   0  0  0  0  0  0  0  0  0  0  0  0
    3.2082  -10.3619   16.9176 C   0  0  0  0  0  0  0  0  0  0  0  0
    3.5744   -8.1090   16.0746 He  0  0  0  0  0  0  0  0  0  0  0  0
    7.9497   -6.1268   19.0039 He  0  0  0  0  0  0  0  0  0  0  0  0
    8.6422   -5.4922   16.0539 He  0  0  0  0  0  0  0  0  0  0  0  0
    8.5603   -6.2371   15.8723 He  0  0  0  0  0  0  0  0  0  0  0  0
    1.4533   -7.6213   15.4857 He  0  0  0  0  0  0  0  0  0  0  0  0
    9.8470   -4.5872   19.4954 He  0  0  0  0  0  0  0  0  0  0  0  0
    4.2441   -8.4297   16.9505 He  0  0  0  0  0  0  0  0  0  0  0  0
    7.0504   -8.3435   15.3773 He  0  0  0  0  0  0  0  0  0  0  0  0
    7.4944   -8.7005   16.4399 He  0  0  0  0  0  0  0  0  0  0  0  0
    9.0436   -8.4546   17.9832 He  0  0  0  0  0  0  0  0  0  0  0  0
    7.2181   -5.2068   15.9332 He  0  0  0  0  0  0  0  0  0  0  0  0
  1  4  3  0
  1  6  2  0
  1  8  2  0
  1  9  3  0
  1 12  2  0
  1 14  1  0
  1 15  2  0
  1 17  1  0
  1 18  1  0
  2  8  1  0
  2 10  4  0
  3  4  3  0
  3  5  1  0
  3 11  2  0
  3 13  4  0
  3 16  3  0
  3 17  4  0
  3 18  4  0
  4 10  1  0
  4 16  1  0
  5 16  4  0
  5 18  4  0
  6  7  4  0
  6 10  3  0
  6 13  1  0
  6 14  4  0
  6 15  2  0
  6 16  2  0
  6 17  3  0
  7  8  3  0
  7 13  1  0
  7 14  4  0
  7 17  1  0
  8 13  4  0
  8 15  1  0
  8 16  3  0
  9 13  2  0
  9 14  1  0
  9 15  2  0
  9 16  1  0
  9 17  2  0
  9 18  3  0
 10 16  4  0
 11 18  1  0
 12 16  4  0
 13 15  4  0
 13 16  3  0
 14 16  2  0
 14 18  4  0
 15 16  3  0
M  END
$$$$

 Created by Python create_sdf_string function

 29  6  0  0  0  0  0  0  0  0999 V2000
    4.5933   -9.9590   17.6099 C   0  0  0  0  0  0  0  0  0  0  0  0
    3.5566   -8.3295   16.3175 C   0  0  0  0  0  0  0  0  0  0  0  0
    3.7313   -8.1570   15.9762 C   0  0  0  0  0  0  0  0  0  0  0  0
    6.6518   -8.2966   18.2088 C   0  0  0  0  0  0  0  0  0  0  0  0
    8.5718   -6.4120   18.3922 C   0  0  0  0  0  0  0  0  0  0  0  0
    9.9690   -5.2271   17.5674 C   0  0  0  0  0  0  0  0  0  0  0  0
    8.2156   -7.4489   16.7815 C   0  0  0  0  0  0  0  0  0  0  0  0
    9.1341   -5.2844   16.3388 C   0  0  0  0  0  0  0  0  0  0  0  0
   10.9070   -3.7893   17.4558 C   0  0  0  0  0  0  0  0  0  0  0  0
   10.3390   -5.4202   18.0472 C   0  0  0  0  0  0  0  0  0  0  0  0
    3.5926   -8.7004   15.8288 C   0  0  0  0  0  0  0  0  0  0  0  0
    8.6728   -6.2514   16.1625 C   0  0  0  0  0  0  0  0  0  0  0  0
    2.0149   -8.1890   15.6733 O   0  0  0  0  0  0  0  0  0  0  0  0
   11.3368   -3.8140   20.4405 O   0  0  0  0  0  0  0  0  0  0  0  0
    3.0956  -10.0444   17.6580 C   0  0  0  0  0  0  0  0  0  0  0  0
   10.3500   -4.6038   19.7959 C   0  0  0  0  0  0  0  0  0  0  0  0
    7.1202   -7.2539   15.5287 C   0  0  0  0  0  0  0  0  0  0  0  0
    9.4870   -5.8827   18.7077 C   0  0  0  0  0  0  0  0  0  0  0  0
   11.5479   -4.2851   16.4710 O   0  0  0  0  0  0  0  0  0  0  0  0
    4.6926   -8.9161   16.9873 C   0  0  0  0  0  0  0  0  0  0  0  0
   11.3037   -3.9373   19.8655 C   0  0  0  0  0  0  0  0  0  0  0  0
    4.4442   -8.0420   15.4149 C   0  0  0  0  0  0  0  0  0  0  0  0
   10.1666   -4.4708   15.9694 C   0  0  0  0  0  0  0  0  0  0  0  0
    6.1748   -7.1792   16.0246 C   0  0  0  0  0  0  0  0  0  0  0  0
    6.9268   -8.4532   15.8305 C   0  0  0  0  0  0  0  0  0  0  0  0
    3.3286   -9.8330   17.3631 C   0  0  0  0  0  0  0  0  0  0  0  0
    7.2979   -8.6844   16.5308 C   0  0  0  0  0  0  0  0  0  0  0  0
    8.9800   -7.9820   17.7366 C   0  0  0  0  0  0  0  0  0  0  0  0
    7.5109   -5.7781   15.7744 C   0  0  0  0  0  0  0  0  0  0  0  0
  1 20  1  0
  1 26  1  0
  3 22  1  0
  7 28  1  0
 11 22  1  0
 14 21  1  0
M  END
$$$$

 Created by Python create_sdf_string function

 29 58  0  0  0  0  0  0  0  0999 V2000
    3.8273  -10.4126   15.6681 C   0  0  0  0  0  0  0  0  0  0  0  0
    3.4797   -8.2612   16.0741 C   0  0  0  0  0  0  0  0  0  0  0  0
    7.9947   -8.5668   18.8199 S   0  0  0  0  0  0  0  0  0  0  0  0
   10.6368   -5.1867   16.6794 Br  0  0  0  0  0  0  0  0  0  0  0  0
    8.7040   -6.9687   17.3933 N   0  0  0  0  0  0  0  0  0  0  0  0
    8.4940   -5.5739   14.4389 B   0  0  0  0  0  0  0  0  0  0  0  0
   11.4567   -4.7402   17.0678 N   0  0  0  0  0  0  0  0  0  0  0  0
    4.3591   -9.7745   16.8046 F   0  0  0  0  0  0  0  0  0  0  0  0
    3.1286  -11.2477   16.5555 C   0  0  0  0  0  0  0  0  0  0  0  0
   10.7814   -4.4134   20.7257 C   0  0  0  0  0  0  0  0  0  0  0  0
    6.6789   -6.5081   14.2190 F   0  0  0  0  0  0  0  0  0  0  0  0
    9.9023   -5.6522   19.0032 O   0  0  0  0  0  0  0  0  0  0  0  0
    3.0385   -9.4119   18.5438 C   0  0  0  0  0  0  0  0  0  0  0  0
    5.0027   -8.2168   15.1605 O   0  0  0  0  0  0  0  0  0  0  0  0
   11.1631   -4.3827   15.6286 Br  0  0  0  0  0  0  0  0  0  0  0  0
    6.8346   -8.5018   15.7268 Cl  0  0  0  0  0  0  0  0  0  0  0  0
    8.4021   -7.8547   18.7547 N   0  0  0  0  0  0  0  0  0  0  0  0
    2.9426   -9.8593   15.3985 He  0  0  0  0  0  0  0  0  0  0  0  0
    6.9851   -7.8265   17.3191 He  0  0  0  0  0  0  0  0  0  0  0  0
   11.5055   -5.6759   18.7828 He  0  0  0  0  0  0  0  0  0  0  0  0
    9.0015   -7.9811   16.8814 He  0  0  0  0  0  0  0  0  0  0  0  0
    1.4291   -8.6272   14.1829 He  0  0  0  0  0  0  0  0  0  0  0  0
   12.2563   -3.5508   19.4668 He  0  0  0  0  0  0  0  0  0  0  0  0
   11.2224   -3.7437   16.7668 He  0  0  0  0  0  0  0  0  0  0  0  0
   11.4190   -4.3713   21.0190 He  0  0  0  0  0  0  0  0  0  0  0  0
    6.4599   -7.6452   15.1582 He  0  0  0  0  0  0  0  0  0  0  0  0
    3.9489   -9.0366   16.9706 He  0  0  0  0  0  0  0  0  0  0  0  0
    6.0198   -9.3900   16.9424 He  0  0  0  0  0  0  0  0  0  0  0  0
    8.1282   -6.4548   15.9909 He  0  0  0  0  0  0  0  0  0  0  0  0
  1  7  1  0
  1  8  2  0
  1  9  3  0
  1 12  4  0
  1 14  3  0
  1 17  3  0
  2  4  1  0
  2  5  2  0
  2  7  4  0
  2  8  1  0
  2 12  3  0
  2 17  3  0
  3 10  3  0
  3 13  4  0
  3 15  1  0
  3 16  4  0
  3 17  4  0
  4  5  4  0
  4 10  2  0
  4 11  4  0
  4 12  4  0
  4 14  4  0
  4 15  1  0
  4 16  2  0
  5  6  4  0
  5 10  1  0
  5 12  4  0
  5 15  4  0
  5 16  3  0
  5 17  1  0
  6 13  2  0
  6 15  1  0
  6 17  2  0
  7  8  1  0
  7  9  3  0
  7 11  3  0
  7 17  4  0
  8 10  1  0
  8 12  4  0
  8 15  1  0
  8 17  3  0
  9 10  3  0
  9 13  3  0
  9 14  2  0
  9 17  1  0
 10 13  2  0
 10 14  1  0
 11 14  4  0
 11 15  1  0
 11 16  1  0
 12 14  4  0
 12 15  4  0
 12 17  1  0
 13 14  4  0
 13 16  2  0
 14 15  3  0
 15 16  4  0
 16 17  2  0
M  END
$$$$

 Created by Python create_sdf_string function

 29  3  0  0  0  0  0  0  0  0999 V2000
    3.4630   -9.2375   16.1419 C   0  0  0  0  0  0  0  0  0  0  0  0
    3.7678   -8.8235   16.0935 C   0  0  0  0  0  0  0  0  0  0  0  0
    2.5039   -9.2889   15.8664 C   0  0  0  0  0  0  0  0  0  0  0  0
    6.8274   -8.0780   17.5400 C   0  0  0  0  0  0  0  0  0  0  0  0
    7.8482   -8.1096   18.1730 C   0  0  0  0  0  0  0  0  0  0  0  0
   10.2604   -4.7700   17.0280 C   0  0  0  0  0  0  0  0  0  0  0  0
    9.0811   -6.5885   17.5461 C   0  0  0  0  0  0  0  0  0  0  0  0
    8.4844   -5.5437   15.8183 C   0  0  0  0  0  0  0  0  0  0  0  0
   10.9840   -4.2867   17.6890 C   0  0  0  0  0  0  0  0  0  0  0  0
   11.0013   -5.1612   18.8035 C   0  0  0  0  0  0  0  0  0  0  0  0
    4.3672   -9.3434   17.0335 C   0  0  0  0  0  0  0  0  0  0  0  0
    8.9021   -7.7153   17.1759 C   0  0  0  0  0  0  0  0  0  0  0  0
    1.8075   -9.1400   15.0379 O   0  0  0  0  0  0  0  0  0  0  0  0
   11.3857   -3.7577   19.6514 C   0  0  0  0  0  0  0  0  0  0  0  0
    2.7015  -10.0607   17.4176 C   0  0  0  0  0  0  0  0  0  0  0  0
   10.8422   -4.4189   20.6304 C   0  0  0  0  0  0  0  0  0  0  0  0
    6.4935   -6.9184   15.1765 C   0  0  0  0  0  0  0  0  0  0  0  0
   10.2643   -5.6450   18.8833 C   0  0  0  0  0  0  0  0  0  0  0  0
   11.0877   -3.6837   16.7737 C   0  0  0  0  0  0  0  0  0  0  0  0
    3.4781  -10.1754   17.8490 C   0  0  0  0  0  0  0  0  0  0  0  0
   11.1653   -4.2625   20.7171 O   0  0  0  0  0  0  0  0  0  0  0  0
    4.7291   -8.1725   15.4988 C   0  0  0  0  0  0  0  0  0  0  0  0
   10.6465   -4.0109   16.3372 C   0  0  0  0  0  0  0  0  0  0  0  0
    6.2742   -7.7670   15.5983 C   0  0  0  0  0  0  0  0  0  0  0  0
    6.9907   -8.0679   15.9025 C   0  0  0  0  0  0  0  0  0  0  0  0
    4.1495   -9.1128   16.8305 C   0  0  0  0  0  0  0  0  0  0  0  0
    5.6955   -8.9874   17.3395 C   0  0  0  0  0  0  0  0  0  0  0  0
    8.8643   -7.3481   18.2940 C   0  0  0  0  0  0  0  0  0  0  0  0
    8.3223   -6.4373   16.1273 C   0  0  0  0  0  0  0  0  0  0  0  0
  8 29  1  0
 16 21  1  0
 19 23  1  0
M  END
$$$$

 Created by Python create_sdf_string function

 29 36  0  0  0  0  0  0  0  0999 V2000
    3.4019   -8.5546   17.1307 Br  0  0  0  0  0  0  0  0  0  0  0  0
    4.0454   -9.6393   15.1219 S   0  0  0  0  0  0  0  0  0  0  0  0
    7.3219   -7.4123   17.6637 P   0  0  0  0  0  0  0  0  0  0  0  0
    8.9542   -5.0083   16.0079 O   0  0  0  0  0  0  0  0  0  0  0  0
    8.9088   -7.9333   18.7434 O   0  0  0  0  0  0  0  0  0  0  0  0
    2.3272   -9.5888   12.8886 F   0  0  0  0  0  0  0  0  0  0  0  0
   11.0572   -4.9183   18.9261 B   0  0  0  0  0  0  0  0  0  0  0  0
   10.1630   -5.2569   17.1461 C   0  0  0  0  0  0  0  0  0  0  0  0
   11.7797   -5.0891   21.0161 F   0  0  0  0  0  0  0  0  0  0  0  0
    4.3592   -7.2796   16.1492 Cl  0  0  0  0  0  0  0  0  0  0  0  0
    5.7804   -6.0859   16.0370 C   0  0  0  0  0  0  0  0  0  0  0  0
    8.2529   -8.0347   15.0429 S   0  0  0  0  0  0  0  0  0  0  0  0
    5.4790   -8.5935   18.4329 C   0  0  0  0  0  0  0  0  0  0  0  0
    4.8325   -8.2930   19.0567 B   0  0  0  0  0  0  0  0  0  0  0  0
    8.4289   -6.8846   17.1246 P   0  0  0  0  0  0  0  0  0  0  0  0
    8.7150   -6.7668   15.9677 N   0  0  0  0  0  0  0  0  0  0  0  0
    4.5333  -11.4550   14.8662 He  0  0  0  0  0  0  0  0  0  0  0  0
    6.6659   -8.3122   18.0429 He  0  0  0  0  0  0  0  0  0  0  0  0
    8.1401   -4.9502   17.1180 He  0  0  0  0  0  0  0  0  0  0  0  0
    8.2950   -5.8687   17.2006 He  0  0  0  0  0  0  0  0  0  0  0  0
   11.8786   -4.5756   17.4921 He  0  0  0  0  0  0  0  0  0  0  0  0
    9.4307   -5.0397   19.5579 He  0  0  0  0  0  0  0  0  0  0  0  0
    3.8226   -9.1420   17.4328 He  0  0  0  0  0  0  0  0  0  0  0  0
   11.0704   -4.3155   18.3482 He  0  0  0  0  0  0  0  0  0  0  0  0
    3.0293   -9.2542   17.1277 He  0  0  0  0  0  0  0  0  0  0  0  0
    5.7256   -7.5362   15.6423 He  0  0  0  0  0  0  0  0  0  0  0  0
   10.4657   -4.9103   16.9627 He  0  0  0  0  0  0  0  0  0  0  0  0
    4.1432  -10.6418   19.0120 He  0  0  0  0  0  0  0  0  0  0  0  0
    8.6365   -3.7482   17.3484 He  0  0  0  0  0  0  0  0  0  0  0  0
  2  8  3  0
  2 10  4  0
  2 14  2  0
  2 15  2  0
  3 12  3  0
  3 16  4  0
  4  7  3  0
  4 10  3  0
  4 11  3  0
  4 12  1  0
  4 15  1  0
  4 16  2  0
  5  7  1  0
  5 10  3  0
  6 12  3  0
  6 13  2  0
  6 15  4  0
  6 16  1  0
  7  8  1  0
  7 12  2  0
  8 10  3  0
  8 12  3  0
  8 14  2  0
  8 15  4  0
  8 16  2  0
  9 13  2  0
  9 14  2  0
 10 12  4  0
 10 13  2  0
 11 14  1  0
 11 15  2  0
 11 16  4  0
 12 13  4  0
 12 14  2  0
 12 15  1  0
 12 16  1  0
M  END
$$$$

 Created by Python create_sdf_string function

 29  4  0  0  0  0  0  0  0  0999 V2000
    3.5935   -9.0509   16.7796 C   0  0  0  0  0  0  0  0  0  0  0  0
    3.7462   -8.9887   15.3582 C   0  0  0  0  0  0  0  0  0  0  0  0
    4.6040   -9.7086   15.2378 C   0  0  0  0  0  0  0  0  0  0  0  0
    7.2707   -7.4144   17.4874 C   0  0  0  0  0  0  0  0  0  0  0  0
    6.7078   -8.3879   17.7300 C   0  0  0  0  0  0  0  0  0  0  0  0
    8.8415   -5.3399   16.8349 C   0  0  0  0  0  0  0  0  0  0  0  0
    8.5816   -6.2593   17.0654 C   0  0  0  0  0  0  0  0  0  0  0  0
    8.9160   -4.7485   16.0301 F   0  0  0  0  0  0  0  0  0  0  0  0
   11.6548   -4.3001   17.9422 C   0  0  0  0  0  0  0  0  0  0  0  0
    9.9710   -4.9205   19.3193 C   0  0  0  0  0  0  0  0  0  0  0  0
    4.2052   -9.3145   17.3154 C   0  0  0  0  0  0  0  0  0  0  0  0
    9.0001   -7.6000   18.3344 F   0  0  0  0  0  0  0  0  0  0  0  0
    2.4302   -9.2762   14.8383 O   0  0  0  0  0  0  0  0  0  0  0  0
   11.1977   -4.2191   18.6158 C   0  0  0  0  0  0  0  0  0  0  0  0
    3.1970   -9.3811   16.8588 C   0  0  0  0  0  0  0  0  0  0  0  0
   11.0663   -4.9061   19.1257 C   0  0  0  0  0  0  0  0  0  0  0  0
    5.7243   -7.7973   15.7918 C   0  0  0  0  0  0  0  0  0  0  0  0
   10.5836   -4.4710   17.1496 C   0  0  0  0  0  0  0  0  0  0  0  0
   10.4141   -5.0317   17.6206 C   0  0  0  0  0  0  0  0  0  0  0  0
    4.1726  -10.2386   18.2889 C   0  0  0  0  0  0  0  0  0  0  0  0
   11.4107   -4.6569   20.3999 O   0  0  0  0  0  0  0  0  0  0  0  0
    4.4618   -7.8404   16.0908 C   0  0  0  0  0  0  0  0  0  0  0  0
    9.5250   -4.2087   16.6588 C   0  0  0  0  0  0  0  0  0  0  0  0
    6.2063   -6.9304   15.8575 C   0  0  0  0  0  0  0  0  0  0  0  0
    8.1942   -8.1064   15.5482 C   0  0  0  0  0  0  0  0  0  0  0  0
    5.7397   -8.7103   17.7829 C   0  0  0  0  0  0  0  0  0  0  0  0
    5.5756   -8.7742   18.3676 C   0  0  0  0  0  0  0  0  0  0  0  0
    8.4699   -7.1297   17.1641 C   0  0  0  0  0  0  0  0  0  0  0  0
    8.5336   -6.9388   15.9525 C   0  0  0  0  0  0  0  0  0  0  0  0
  1 15  1  0
  2 13  1  0
 17 24  1  0
 25 29  1  0
M  END
$$$$

 Created by Python create_sdf_string function

 29 19  0  0  0  0  0  0  0  0999 V2000
    2.9619   -8.0545   16.7103 Cl  0  0  0  0  0  0  0  0  0  0  0  0
    3.2527   -9.1639   15.0892 C   0  0  0  0  0  0  0  0  0  0  0  0
    4.2319   -8.6704   15.6950 O   0  0  0  0  0  0  0  0  0  0  0  0
    8.0546   -8.5890   16.7321 C   0  0  0  0  0  0  0  0  0  0  0  0
    7.2064   -8.1385   18.4503 N   0  0  0  0  0  0  0  0  0  0  0  0
    4.0845   -7.2533   18.1950 N   0  0  0  0  0  0  0  0  0  0  0  0
   11.2960   -4.4894   18.4468 C   0  0  0  0  0  0  0  0  0  0  0  0
   10.4940   -6.2637   18.9287 I   0  0  0  0  0  0  0  0  0  0  0  0
    5.1024   -8.6330   17.4308 Cl  0  0  0  0  0  0  0  0  0  0  0  0
   10.0259   -4.2759   17.9802 F   0  0  0  0  0  0  0  0  0  0  0  0
    7.3523   -4.4024   16.4449 N   0  0  0  0  0  0  0  0  0  0  0  0
    7.2193   -6.0559   16.1223 He  0  0  0  0  0  0  0  0  0  0  0  0
    9.0521   -6.4976   16.1113 He  0  0  0  0  0  0  0  0  0  0  0  0
    7.7922   -4.6996   16.9285 He  0  0  0  0  0  0  0  0  0  0  0  0
   11.6267   -4.6077   16.0412 He  0  0  0  0  0  0  0  0  0  0  0  0
    9.2710   -5.7643   19.9327 He  0  0  0  0  0  0  0  0  0  0  0  0
    8.1231   -8.4472   18.1844 He  0  0  0  0  0  0  0  0  0  0  0  0
    3.7213   -8.4976   16.3340 He  0  0  0  0  0  0  0  0  0  0  0  0
    3.5037   -8.5079   15.5161 He  0  0  0  0  0  0  0  0  0  0  0  0
    5.3982   -8.4588   16.4402 He  0  0  0  0  0  0  0  0  0  0  0  0
   10.7669   -5.1419   16.5804 He  0  0  0  0  0  0  0  0  0  0  0  0
   11.2718   -6.7083   16.2306 He  0  0  0  0  0  0  0  0  0  0  0  0
    4.5463   -9.5938   17.5218 He  0  0  0  0  0  0  0  0  0  0  0  0
   10.2674   -5.2391   19.8577 He  0  0  0  0  0  0  0  0  0  0  0  0
    5.8857   -6.7041   14.3978 He  0  0  0  0  0  0  0  0  0  0  0  0
    8.2467   -7.9841   15.7891 He  0  0  0  0  0  0  0  0  0  0  0  0
    5.5764   -7.5257   18.8150 He  0  0  0  0  0  0  0  0  0  0  0  0
    4.9904   -6.8261   20.7058 He  0  0  0  0  0  0  0  0  0  0  0  0
    7.9525   -6.8468   17.1444 He  0  0  0  0  0  0  0  0  0  0  0  0
  1  4  4  0
  2  3  4  0
  2  6  4  0
  3  5  2  0
  3  6  2  0
  3 11  2  0
  4  6  2  0
  4  8  3  0
  4  9  4  0
  4 10  3  0
  5 11  3  0
  6  8  3  0
  6  9  2  0
  6 10  2  0
  7  8  1  0
  7  9  4  0
  7 11  4  0
  8 11  2  0
  9 11  2  0
M  END
$$$$

 Created by Python create_sdf_string function

 29  5  0  0  0  0  0  0  0  0999 V2000
    3.1894   -8.4574   16.6933 C   0  0  0  0  0  0  0  0  0  0  0  0
    2.8616   -8.9071   15.4203 C   0  0  0  0  0  0  0  0  0  0  0  0
    3.9528   -8.6316   15.6062 C   0  0  0  0  0  0  0  0  0  0  0  0
    8.0883   -8.3501   16.7447 C   0  0  0  0  0  0  0  0  0  0  0  0
    7.4535   -7.9295   18.0141 F   0  0  0  0  0  0  0  0  0  0  0  0
    7.5364   -6.3722   15.9396 C   0  0  0  0  0  0  0  0  0  0  0  0
    8.7871   -6.5246   16.0672 F   0  0  0  0  0  0  0  0  0  0  0  0
    8.8876   -4.7787   16.4732 F   0  0  0  0  0  0  0  0  0  0  0  0
   11.2080   -3.9442   16.5225 F   0  0  0  0  0  0  0  0  0  0  0  0
    9.9963   -5.2486   19.4882 C   0  0  0  0  0  0  0  0  0  0  0  0
    4.3354   -7.8721   17.5017 C   0  0  0  0  0  0  0  0  0  0  0  0
    8.3498   -7.9071   17.8005 F   0  0  0  0  0  0  0  0  0  0  0  0
    3.7961   -8.6553   16.4006 C   0  0  0  0  0  0  0  0  0  0  0  0
   11.0999   -4.4245   18.5535 C   0  0  0  0  0  0  0  0  0  0  0  0
    3.2069   -8.6772   15.6861 C   0  0  0  0  0  0  0  0  0  0  0  0
   10.3082   -5.9044   18.9223 C   0  0  0  0  0  0  0  0  0  0  0  0
    5.7111   -8.6341   16.5028 F   0  0  0  0  0  0  0  0  0  0  0  0
   10.5748   -4.5172   16.6168 C   0  0  0  0  0  0  0  0  0  0  0  0
   10.3676   -5.9127   16.8321 F   0  0  0  0  0  0  0  0  0  0  0  0
    4.6453   -9.1566   17.4369 C   0  0  0  0  0  0  0  0  0  0  0  0
   10.3867   -4.9590   19.6381 C   0  0  0  0  0  0  0  0  0  0  0  0
    5.3985   -8.5683   17.3092 C   0  0  0  0  0  0  0  0  0  0  0  0
   10.2347   -4.2444   17.8396 C   0  0  0  0  0  0  0  0  0  0  0  0
    6.3270   -6.9180   15.1506 F   0  0  0  0  0  0  0  0  0  0  0  0
    8.1937   -8.0020   15.6767 F   0  0  0  0  0  0  0  0  0  0  0  0
    6.1155   -8.0724   18.3304 F   0  0  0  0  0  0  0  0  0  0  0  0
    5.8280   -7.6961   19.2416 F   0  0  0  0  0  0  0  0  0  0  0  0
    8.0111   -6.5998   17.0495 C   0  0  0  0  0  0  0  0  0  0  0  0
    8.4036   -4.9903   16.1456 F   0  0  0  0  0  0  0  0  0  0  0  0
  5 26  1  0
  6  7  1  0
  6 28  1  0
  9 18  1  0
 10 21  1  0
M  END
$$$$

 Created by Python create_sdf_string function

 29 42  0  0  0  0  0  0  0  0999 V2000
    1.6932   -8.6048   18.4428 N   0  0  0  0  0  0  0  0  0  0  0  0
    3.8349   -7.5570   16.4267 N   0  0  0  0  0  0  0  0  0  0  0  0
    8.7843   -8.2083   15.8666 F   0  0  0  0  0  0  0  0  0  0  0  0
    9.1149   -9.4089   19.3928 P   0  0  0  0  0  0  0  0  0  0  0  0
    8.0725   -6.4540   17.3161 F   0  0  0  0  0  0  0  0  0  0  0  0
    9.4269   -3.2752   16.1936 Cl  0  0  0  0  0  0  0  0  0  0  0  0
   11.2129   -4.7031   19.5714 C   0  0  0  0  0  0  0  0  0  0  0  0
    5.6784   -8.2603   18.0004 C   0  0  0  0  0  0  0  0  0  0  0  0
    8.6875   -9.1860   18.0008 F   0  0  0  0  0  0  0  0  0  0  0  0
    9.8411   -5.7200   17.8220 N   0  0  0  0  0  0  0  0  0  0  0  0
    3.9772   -8.4217   14.7962 Cl  0  0  0  0  0  0  0  0  0  0  0  0
   11.5992   -3.6212   16.4473 F   0  0  0  0  0  0  0  0  0  0  0  0
   10.6248   -7.2130   16.3050 F   0  0  0  0  0  0  0  0  0  0  0  0
   10.0218   -5.9185   17.6926 C   0  0  0  0  0  0  0  0  0  0  0  0
    5.3844   -9.2145   19.0848 N   0  0  0  0  0  0  0  0  0  0  0  0
    7.5281   -7.6276   14.1293 F   0  0  0  0  0  0  0  0  0  0  0  0
    8.4343   -6.4804   14.5715 F   0  0  0  0  0  0  0  0  0  0  0  0
    7.1650   -8.3393   18.2025 F   0  0  0  0  0  0  0  0  0  0  0  0
    3.8615   -8.9575   16.5454 He  0  0  0  0  0  0  0  0  0  0  0  0
    6.7970   -6.9996   17.6833 He  0  0  0  0  0  0  0  0  0  0  0  0
    8.5868   -5.0721   15.0484 He  0  0  0  0  0  0  0  0  0  0  0  0
    4.0518   -9.1858   15.8548 He  0  0  0  0  0  0  0  0  0  0  0  0
   10.5332   -5.3098   19.2963 He  0  0  0  0  0  0  0  0  0  0  0  0
    4.5890   -8.9394   17.2050 He  0  0  0  0  0  0  0  0  0  0  0  0
    4.3043   -8.6579   18.9085 He  0  0  0  0  0  0  0  0  0  0  0  0
   11.1780   -3.8508   16.4790 He  0  0  0  0  0  0  0  0  0  0  0  0
    8.3246   -6.7615   19.8955 He  0  0  0  0  0  0  0  0  0  0  0  0
    8.0047   -7.4323   17.3369 He  0  0  0  0  0  0  0  0  0  0  0  0
    8.2047   -6.0081   15.9658 He  0  0  0  0  0  0  0  0  0  0  0  0
  1  8  2  0
  1  9  2  0
  1 16  1  0
  1 18  1  0
  2  7  4  0
  2  8  2  0
  2 11  1  0
  3  6  3  0
  3 16  3  0
  3 18  4  0
  4  9  2  0
  4 10  3  0
  4 14  4  0
  4 15  2  0
  4 17  1  0
  5  6  3  0
  5 10  4  0
  5 13  3  0
  5 18  3  0
  6 10  4  0
  6 11  3  0
  6 12  1  0
  6 15  2  0
  6 17  1  0
  7  8  2  0
  7 12  1  0
  7 13  1  0
  7 14  1  0
  7 17  4  0
  8 17  3  0
  9 17  2  0
 10 11  3  0
 10 12  4  0
 10 17  2  0
 11 17  1  0
 12 14  3  0
 12 17  3  0
 13 15  2  0
 13 17  2  0
 14 17  4  0
 15 16  2  0
 17 18  1  0
M  END
$$$$

 Created by Python create_sdf_string function

 29  3  0  0  0  0  0  0  0  0999 V2000
    2.4611   -9.5382   17.2576 C   0  0  0  0  0  0  0  0  0  0  0  0
    3.9722   -8.0894   16.2457 C   0  0  0  0  0  0  0  0  0  0  0  0
    3.4401   -8.8509   16.6463 C   0  0  0  0  0  0  0  0  0  0  0  0
    8.5059   -8.2466   15.9736 F   0  0  0  0  0  0  0  0  0  0  0  0
    9.0959   -8.1190   18.6387 F   0  0  0  0  0  0  0  0  0  0  0  0
    6.6445   -7.1853   17.5160 F   0  0  0  0  0  0  0  0  0  0  0  0
    8.2576   -6.3802   17.3816 F   0  0  0  0  0  0  0  0  0  0  0  0
    8.6243   -4.9006   15.9156 F   0  0  0  0  0  0  0  0  0  0  0  0
    9.8202   -3.8401   16.1327 F   0  0  0  0  0  0  0  0  0  0  0  0
   10.9720   -4.6260   19.1020 C   0  0  0  0  0  0  0  0  0  0  0  0
    5.7399   -8.2218   17.6828 C   0  0  0  0  0  0  0  0  0  0  0  0
    8.7307   -8.4929   17.6509 F   0  0  0  0  0  0  0  0  0  0  0  0
    3.7701   -8.7141   16.2103 C   0  0  0  0  0  0  0  0  0  0  0  0
    9.8499   -5.3418   17.9240 C   0  0  0  0  0  0  0  0  0  0  0  0
    3.9734   -8.4632   15.3406 C   0  0  0  0  0  0  0  0  0  0  0  0
   10.4800   -5.2789   19.2183 F   0  0  0  0  0  0  0  0  0  0  0  0
    4.4319   -8.7431   17.1827 C   0  0  0  0  0  0  0  0  0  0  0  0
   11.1004   -3.7551   17.0621 F   0  0  0  0  0  0  0  0  0  0  0  0
    9.7199   -6.6923   17.1226 F   0  0  0  0  0  0  0  0  0  0  0  0
    4.7005   -9.2217   18.1132 C   0  0  0  0  0  0  0  0  0  0  0  0
   10.2940   -5.3523   18.0822 C   0  0  0  0  0  0  0  0  0  0  0  0
    5.4488   -9.1620   18.6666 F   0  0  0  0  0  0  0  0  0  0  0  0
   10.9814   -3.8295   16.7876 F   0  0  0  0  0  0  0  0  0  0  0  0
    7.5832   -7.6299   15.2911 F   0  0  0  0  0  0  0  0  0  0  0  0
    8.0970   -6.6585   15.3035 F   0  0  0  0  0  0  0  0  0  0  0  0
    6.9660   -8.2718   18.1299 F   0  0  0  0  0  0  0  0  0  0  0  0
    9.2202   -6.6337   18.9843 F   0  0  0  0  0  0  0  0  0  0  0  0
    8.1199   -7.3704   17.3495 C   0  0  0  0  0  0  0  0  0  0  0  0
    7.9750   -6.0070   16.1733 C   0  0  0  0  0  0  0  0  0  0  0  0
  6 11  1  0
  7 28  1  0
 20 22  4  0
M  END
$$$$

 Created by Python create_sdf_string function

 29 33  0  0  0  0  0  0  0  0999 V2000
    4.3142   -7.2907   18.2426 N   0  0  0  0  0  0  0  0  0  0  0  0
    8.9417   -8.8699   18.3777 Se  0  0  0  0  0  0  0  0  0  0  0  0
    5.9367   -7.8273   18.2434 F   0  0  0  0  0  0  0  0  0  0  0  0
    7.3099   -5.1035   16.9375 N   0  0  0  0  0  0  0  0  0  0  0  0
    8.8871   -5.1624   15.7606 O   0  0  0  0  0  0  0  0  0  0  0  0
    9.9927   -4.8786   15.9149 F   0  0  0  0  0  0  0  0  0  0  0  0
   10.5349   -4.5022   19.5288 F   0  0  0  0  0  0  0  0  0  0  0  0
    6.6261   -7.4245   17.6781 O   0  0  0  0  0  0  0  0  0  0  0  0
   10.3512   -5.2517   19.7308 C   0  0  0  0  0  0  0  0  0  0  0  0
    3.9749   -8.5019   16.5037 C   0  0  0  0  0  0  0  0  0  0  0  0
   10.3541   -6.6252   15.6642 F   0  0  0  0  0  0  0  0  0  0  0  0
   10.9385   -3.8876   18.4467 F   0  0  0  0  0  0  0  0  0  0  0  0
    5.0129   -9.5674   18.4716 N   0  0  0  0  0  0  0  0  0  0  0  0
    6.7020   -8.0681   18.0668 Cl  0  0  0  0  0  0  0  0  0  0  0  0
    8.0118   -6.7353   16.2595 Br  0  0  0  0  0  0  0  0  0  0  0  0
    2.5302  -10.0481   18.1987 He  0  0  0  0  0  0  0  0  0  0  0  0
    3.4960   -7.6437   15.9759 He  0  0  0  0  0  0  0  0  0  0  0  0
    7.2675   -6.7383   16.0375 He  0  0  0  0  0  0  0  0  0  0  0  0
    8.8615   -9.5736   16.0836 He  0  0  0  0  0  0  0  0  0  0  0  0
    1.8926   -9.9653   16.0040 He  0  0  0  0  0  0  0  0  0  0  0  0
    9.9826   -6.3971   17.5145 He  0  0  0  0  0  0  0  0  0  0  0  0
    4.1116   -9.1179   15.8899 He  0  0  0  0  0  0  0  0  0  0  0  0
   10.8201   -2.0218   18.5656 He  0  0  0  0  0  0  0  0  0  0  0  0
    4.5927   -9.1168   17.2020 He  0  0  0  0  0  0  0  0  0  0  0  0
   12.2310   -4.4301   15.1194 He  0  0  0  0  0  0  0  0  0  0  0  0
    6.6582   -8.1768   15.4548 He  0  0  0  0  0  0  0  0  0  0  0  0
    7.3301   -6.6981   14.9130 He  0  0  0  0  0  0  0  0  0  0  0  0
    8.3074   -5.2411   18.8987 He  0  0  0  0  0  0  0  0  0  0  0  0
    8.4298   -7.7518   17.2559 He  0  0  0  0  0  0  0  0  0  0  0  0
  1  2  2  0
  1  5  1  0
  1  6  1  0
  1  7  1  0
  2  3  3  0
  2  4  2  0
  2  5  4  0
  2 10  3  0
  2 15  3  0
  3  5  1  0
  3  6  2  0
  3 11  3  0
  3 12  4  0
  4  7  2  0
  4 10  1  0
  4 13  2  0
  4 14  2  0
  4 15  4  0
  5  9  2  0
  5 13  4  0
  5 15  3  0
  6 10  3  0
  7  9  1  0
  7 10  4  0
  7 11  4  0
  8 12  2  0
  8 13  2  0
  9 11  1  0
  9 15  3  0
 10 12  3  0
 11 15  1  0
 12 15  3  0
 13 14  4  0
M  END
$$$$

 Created by Python create_sdf_string function

 29  4  0  0  0  0  0  0  0  0999 V2000
    2.8336  -10.0695   17.7036 C   0  0  0  0  0  0  0  0  0  0  0  0
    4.5555   -7.9129   17.4221 C   0  0  0  0  0  0  0  0  0  0  0  0
    3.7654   -8.0165   16.0086 C   0  0  0  0  0  0  0  0  0  0  0  0
    7.3402   -6.7812   16.0584 C   0  0  0  0  0  0  0  0  0  0  0  0
    8.9324   -8.0247   18.0914 F   0  0  0  0  0  0  0  0  0  0  0  0
    6.3641   -7.9824   17.9228 F   0  0  0  0  0  0  0  0  0  0  0  0
    7.9247   -5.6153   16.6028 F   0  0  0  0  0  0  0  0  0  0  0  0
    9.1804   -4.7824   16.0656 C   0  0  0  0  0  0  0  0  0  0  0  0
   10.2184   -4.4627   16.5132 C   0  0  0  0  0  0  0  0  0  0  0  0
   10.5879   -4.3693   19.5796 C   0  0  0  0  0  0  0  0  0  0  0  0
    6.6277   -7.5517   17.7106 F   0  0  0  0  0  0  0  0  0  0  0  0
    8.6638   -8.6240   16.0388 F   0  0  0  0  0  0  0  0  0  0  0  0
    2.0308   -9.4369   16.4079 C   0  0  0  0  0  0  0  0  0  0  0  0
    9.7990   -5.9490   17.8846 C   0  0  0  0  0  0  0  0  0  0  0  0
    3.7960   -8.7465   16.1256 C   0  0  0  0  0  0  0  0  0  0  0  0
   10.4117   -5.1036   19.5159 C   0  0  0  0  0  0  0  0  0  0  0  0
    3.8297   -8.8032   16.6850 C   0  0  0  0  0  0  0  0  0  0  0  0
   11.0294   -3.3265   18.2818 C   0  0  0  0  0  0  0  0  0  0  0  0
    9.6757   -5.7755   16.1514 F   0  0  0  0  0  0  0  0  0  0  0  0
    4.0161   -9.1715   17.2653 C   0  0  0  0  0  0  0  0  0  0  0  0
   10.8932   -3.8922   18.1354 C   0  0  0  0  0  0  0  0  0  0  0  0
    5.0180   -9.3390   18.2455 F   0  0  0  0  0  0  0  0  0  0  0  0
   11.2712   -3.8476   15.9573 F   0  0  0  0  0  0  0  0  0  0  0  0
    6.5054   -8.0160   15.8139 F   0  0  0  0  0  0  0  0  0  0  0  0
    7.1884   -6.6891   15.3045 F   0  0  0  0  0  0  0  0  0  0  0  0
    6.7521   -8.1541   17.8864 F   0  0  0  0  0  0  0  0  0  0  0  0
    9.1071   -5.5850   18.5254 F   0  0  0  0  0  0  0  0  0  0  0  0
    8.3948   -7.7339   17.2552 C   0  0  0  0  0  0  0  0  0  0  0  0
    8.4105   -6.5288   16.5911 C   0  0  0  0  0  0  0  0  0  0  0  0
  5 28  1  0
  6 26  1  0
 10 16  1  0
 18 21  4  0
M  END
$$$$

 Created by Python create_sdf_string function

 29 32  0  0  0  0  0  0  0  0999 V2000
    3.6852   -7.8358   17.0156 C   0  0  0  0  0  0  0  0  0  0  0  0
    7.8519   -6.1594   14.7413 O   0  0  0  0  0  0  0  0  0  0  0  0
    6.8972   -5.6010   16.4074 B   0  0  0  0  0  0  0  0  0  0  0  0
    9.5139   -3.2157   16.0390 C   0  0  0  0  0  0  0  0  0  0  0  0
   11.3316   -3.6588   18.3057 O   0  0  0  0  0  0  0  0  0  0  0  0
    9.4143   -8.7064   16.4641 O   0  0  0  0  0  0  0  0  0  0  0  0
    4.7481   -9.5540   16.0027 C   0  0  0  0  0  0  0  0  0  0  0  0
   11.0293   -5.6515   21.1040 S   0  0  0  0  0  0  0  0  0  0  0  0
    4.6487   -6.5231   17.0623 C   0  0  0  0  0  0  0  0  0  0  0  0
   10.5347   -3.2831   18.0036 I   0  0  0  0  0  0  0  0  0  0  0  0
   12.2929   -4.0002   18.1695 C   0  0  0  0  0  0  0  0  0  0  0  0
    4.3212  -10.1891   17.9460 F   0  0  0  0  0  0  0  0  0  0  0  0
   12.1175   -2.4934   15.2560 P   0  0  0  0  0  0  0  0  0  0  0  0
    6.1437   -7.6861   15.7830 F   0  0  0  0  0  0  0  0  0  0  0  0
    7.3571   -7.8049   18.2594 F   0  0  0  0  0  0  0  0  0  0  0  0
    6.9136   -6.8356   16.1687 O   0  0  0  0  0  0  0  0  0  0  0  0
    3.2866   -9.2133   16.5984 He  0  0  0  0  0  0  0  0  0  0  0  0
    4.6798   -8.6588   17.2028 He  0  0  0  0  0  0  0  0  0  0  0  0
    8.3934   -8.1750   18.6538 He  0  0  0  0  0  0  0  0  0  0  0  0
    6.6255   -7.0471   18.5740 He  0  0  0  0  0  0  0  0  0  0  0  0
    9.8943   -4.7827   15.5843 He  0  0  0  0  0  0  0  0  0  0  0  0
    6.0881   -8.9343   17.8673 He  0  0  0  0  0  0  0  0  0  0  0  0
    2.6530  -11.1572   16.5979 He  0  0  0  0  0  0  0  0  0  0  0  0
    9.7803   -4.9139   19.6043 He  0  0  0  0  0  0  0  0  0  0  0  0
    9.5975   -4.9023   17.2250 He  0  0  0  0  0  0  0  0  0  0  0  0
    3.9202   -6.6596   17.5434 He  0  0  0  0  0  0  0  0  0  0  0  0
    7.0567   -5.8914   15.8457 He  0  0  0  0  0  0  0  0  0  0  0  0
    9.2393   -7.2710   19.2276 He  0  0  0  0  0  0  0  0  0  0  0  0
    6.9479   -6.9655   18.4593 He  0  0  0  0  0  0  0  0  0  0  0  0
  1  8  2  0
  1  9  2  0
  2  3  4  0
  2  5  1  0
  2  6  1  0
  2  8  4  0
  2  9  1  0
  2 11  1  0
  2 13  1  0
  2 16  2  0
  4  9  2  0
  4 13  1  0
  5  8  4  0
  5  9  3  0
  5 11  3  0
  5 16  2  0
  6  7  2  0
  6  9  1  0
  6 13  1  0
  7  8  1  0
  7  9  3  0
  7 14  2  0
  8  9  1  0
  8 13  2  0
  8 16  3  0
  9 15  1  0
 10 11  4  0
 10 16  3  0
 11 15  2  0
 11 16  4  0
 13 14  3  0
 14 16  3  0
M  END
$$$$

 Created by Python create_sdf_string function

 29  7  0  0  0  0  0  0  0  0999 V2000
    2.9506   -9.3559   16.7196 C   0  0  0  0  0  0  0  0  0  0  0  0
    4.5490   -8.9287   17.1495 C   0  0  0  0  0  0  0  0  0  0  0  0
    3.6027   -8.3846   16.6021 C   0  0  0  0  0  0  0  0  0  0  0  0
    7.6937   -6.6484   15.2538 F   0  0  0  0  0  0  0  0  0  0  0  0
    8.6696   -7.9025   18.3204 C   0  0  0  0  0  0  0  0  0  0  0  0
    6.7978   -7.3311   18.1706 F   0  0  0  0  0  0  0  0  0  0  0  0
    7.5850   -5.9253   16.4088 F   0  0  0  0  0  0  0  0  0  0  0  0
   10.0525   -4.1605   16.1021 C   0  0  0  0  0  0  0  0  0  0  0  0
   10.4694   -3.8801   16.0255 C   0  0  0  0  0  0  0  0  0  0  0  0
   11.2731   -3.8583   18.3393 C   0  0  0  0  0  0  0  0  0  0  0  0
    6.0672   -8.8585   17.7859 F   0  0  0  0  0  0  0  0  0  0  0  0
    8.7918   -8.5547   16.6706 F   0  0  0  0  0  0  0  0  0  0  0  0
    2.4978  -10.0103   17.2829 C   0  0  0  0  0  0  0  0  0  0  0  0
    9.8925   -5.0173   19.1880 C   0  0  0  0  0  0  0  0  0  0  0  0
    4.5353   -9.2500   16.2805 C   0  0  0  0  0  0  0  0  0  0  0  0
   10.6220   -5.2160   20.1506 C   0  0  0  0  0  0  0  0  0  0  0  0
    4.7961   -7.3931   16.4488 C   0  0  0  0  0  0  0  0  0  0  0  0
   10.7871   -4.1049   17.9749 C   0  0  0  0  0  0  0  0  0  0  0  0
    9.6634   -4.9583   17.5277 C   0  0  0  0  0  0  0  0  0  0  0  0
    4.1657   -7.4713   16.7028 C   0  0  0  0  0  0  0  0  0  0  0  0
   11.4201   -3.6957   17.8576 C   0  0  0  0  0  0  0  0  0  0  0  0
    4.3123  -10.1503   17.8558 C   0  0  0  0  0  0  0  0  0  0  0  0
   11.8687   -3.2455   15.9435 C   0  0  0  0  0  0  0  0  0  0  0  0
    6.1071   -8.1524   15.8126 F   0  0  0  0  0  0  0  0  0  0  0  0
    7.4145   -6.1708   16.0307 C   0  0  0  0  0  0  0  0  0  0  0  0
    7.4864   -7.9888   17.9503 F   0  0  0  0  0  0  0  0  0  0  0  0
    9.3975   -7.0387   18.8579 F   0  0  0  0  0  0  0  0  0  0  0  0
    7.5128   -7.1795   18.1769 C   0  0  0  0  0  0  0  0  0  0  0  0
    6.8351   -7.1324   15.9473 C   0  0  0  0  0  0  0  0  0  0  0  0
  1 13  4  0
  5 27  1  0
  7 25  1  0
  8  9  4  0
 10 21  4  0
 18 19  4  0
 18 21  4  0
M  END
$$$$

 Created by Python create_sdf_string function

 29 66  0  0  0  0  0  0  0  0999 V2000
    3.2322   -9.7257   17.7538 I   0  0  0  0  0  0  0  0  0  0  0  0
    4.8831   -8.8292   17.7988 C   0  0  0  0  0  0  0  0  0  0  0  0
    3.6038   -7.9129   15.6124 C   0  0  0  0  0  0  0  0  0  0  0  0
    8.6568   -8.2880   18.6720 Cl  0  0  0  0  0  0  0  0  0  0  0  0
    7.0608   -7.5048   18.4810 F   0  0  0  0  0  0  0  0  0  0  0  0
   10.0071   -4.3022   15.3455 Cl  0  0  0  0  0  0  0  0  0  0  0  0
   11.7221   -4.1136   17.8569 O   0  0  0  0  0  0  0  0  0  0  0  0
    5.3524   -8.6135   19.1717 Cl  0  0  0  0  0  0  0  0  0  0  0  0
    9.5974   -8.1623   16.9566 C   0  0  0  0  0  0  0  0  0  0  0  0
    2.4653  -10.0482   17.7323 F   0  0  0  0  0  0  0  0  0  0  0  0
    8.6058   -4.2679   18.7425 N   0  0  0  0  0  0  0  0  0  0  0  0
    4.3416   -7.9494   16.5987 C   0  0  0  0  0  0  0  0  0  0  0  0
   10.0918   -4.6279   17.0560 C   0  0  0  0  0  0  0  0  0  0  0  0
    3.3848   -7.6383   17.2992 P   0  0  0  0  0  0  0  0  0  0  0  0
   11.0813   -3.4526   16.6672 C   0  0  0  0  0  0  0  0  0  0  0  0
    7.7807   -6.2031   16.4417 S   0  0  0  0  0  0  0  0  0  0  0  0
    9.0794   -8.0991   18.7823 C   0  0  0  0  0  0  0  0  0  0  0  0
    9.3962   -7.4153   19.0237 F   0  0  0  0  0  0  0  0  0  0  0  0
    6.7276   -7.1425   17.7572 C   0  0  0  0  0  0  0  0  0  0  0  0
    7.1959   -5.6321   13.8384 He  0  0  0  0  0  0  0  0  0  0  0  0
    8.4675   -4.8330   17.9537 He  0  0  0  0  0  0  0  0  0  0  0  0
    9.8686   -3.3854   16.1621 He  0  0  0  0  0  0  0  0  0  0  0  0
    2.8461  -10.9385   16.8747 He  0  0  0  0  0  0  0  0  0  0  0  0
    9.8026   -5.0295   20.5634 He  0  0  0  0  0  0  0  0  0  0  0  0
    9.7422   -3.7681   18.1419 He  0  0  0  0  0  0  0  0  0  0  0  0
   11.4126   -3.3719   18.4876 He  0  0  0  0  0  0  0  0  0  0  0  0
    4.3324  -11.3808   17.9862 He  0  0  0  0  0  0  0  0  0  0  0  0
    5.1985   -8.0789   16.8319 He  0  0  0  0  0  0  0  0  0  0  0  0
    5.7614   -6.8836   15.7114 He  0  0  0  0  0  0  0  0  0  0  0  0
  1  4  1  0
  1  9  1  0
  1 10  4  0
  1 12  3  0
  1 14  4  0
  1 15  3  0
  1 16  1  0
  2  3  3  0
  2  4  4  0
  2 10  3  0
  2 11  4  0
  2 14  3  0
  2 19  3  0
  3  6  1  0
  3  7  4  0
  3  8  4  0
  3 11  1  0
  3 12  4  0
  3 14  3  0
  3 15  3  0
  4  7  3  0
  4  8  1  0
  4 13  4  0
  4 14  1  0
  4 15  1  0
  5 10  1  0
  5 13  4  0
  5 14  4  0
  5 17  1  0
  5 19  4  0
  6  7  2  0
  6  8  4  0
  6 11  4  0
  6 13  4  0
  6 14  4  0
  6 16  3  0
  6 17  1  0
  6 18  3  0
  6 19  4  0
  7 10  4  0
  7 12  1  0
  7 14  3  0
  7 15  4  0
  7 18  1  0
  7 19  4  0
  8  9  1  0
  8 12  2  0
  8 15  4  0
  8 17  1  0
  8 18  1  0
  8 19  2  0
  9 13  4  0
  9 14  1  0
  9 18  2  0
  9 19  1  0
 10 17  2  0
 11 14  3  0
 11 16  4  0
 13 14  2  0
 13 17  1  0
 13 18  4  0
 15 19  2  0
 16 17  1  0
 16 19  2  0
 17 18  1  0
 18 19  2  0
M  END
$$$$

 Created by Python create_sdf_string function

 29 13  0  0  0  0  0  0  0  0999 V2000
    2.8775   -9.8010   17.4178 C   0  0  0  0  0  0  0  0  0  0  0  0
    4.7898   -9.0630   17.4541 C   0  0  0  0  0  0  0  0  0  0  0  0
    3.7299   -7.9874   16.0800 C   0  0  0  0  0  0  0  0  0  0  0  0
    7.0198   -6.0242   15.2435 O   0  0  0  0  0  0  0  0  0  0  0  0
    8.9700   -8.3561   18.1441 F   0  0  0  0  0  0  0  0  0  0  0  0
    7.4022   -7.6637   18.1073 F   0  0  0  0  0  0  0  0  0  0  0  0
    8.8726   -5.8297   18.1285 C   0  0  0  0  0  0  0  0  0  0  0  0
   10.2073   -3.7701   15.8909 C   0  0  0  0  0  0  0  0  0  0  0  0
    9.7665   -4.0243   15.9906 C   0  0  0  0  0  0  0  0  0  0  0  0
   11.3754   -3.5033   17.8446 C   0  0  0  0  0  0  0  0  0  0  0  0
    5.8068   -9.0815   18.3239 C   0  0  0  0  0  0  0  0  0  0  0  0
    8.7786   -8.0328   16.7545 F   0  0  0  0  0  0  0  0  0  0  0  0
    2.5756  -10.1474   17.6581 C   0  0  0  0  0  0  0  0  0  0  0  0
    9.2903   -5.0859   19.1556 C   0  0  0  0  0  0  0  0  0  0  0  0
    2.6065  -10.2924   17.7176 C   0  0  0  0  0  0  0  0  0  0  0  0
   10.2269   -4.7841   20.2232 C   0  0  0  0  0  0  0  0  0  0  0  0
    4.1309   -8.0744   16.3470 C   0  0  0  0  0  0  0  0  0  0  0  0
   10.2461   -4.3640   18.2514 C   0  0  0  0  0  0  0  0  0  0  0  0
    9.8847   -4.5733   17.2931 C   0  0  0  0  0  0  0  0  0  0  0  0
    3.6450   -8.1806   16.5145 C   0  0  0  0  0  0  0  0  0  0  0  0
   11.3505   -3.5133   18.3142 C   0  0  0  0  0  0  0  0  0  0  0  0
    4.0646  -10.6519   18.2726 C   0  0  0  0  0  0  0  0  0  0  0  0
   11.5737   -3.3601   16.8849 C   0  0  0  0  0  0  0  0  0  0  0  0
    5.6706   -8.1449   17.1567 C   0  0  0  0  0  0  0  0  0  0  0  0
    7.8566   -6.6102   16.6140 F   0  0  0  0  0  0  0  0  0  0  0  0
    8.9628   -7.6369   18.3433 C   0  0  0  0  0  0  0  0  0  0  0  0
    9.5545   -7.2627   18.7091 F   0  0  0  0  0  0  0  0  0  0  0  0
    7.1091   -7.5236   17.3420 C   0  0  0  0  0  0  0  0  0  0  0  0
    6.1191   -7.0042   15.8008 C   0  0  0  0  0  0  0  0  0  0  0  0
  1 13  4  0
  3 17  4  0
  3 20  4  0
  5 26  1  0
  6 26  1  0
  6 28  1  0
  8  9  4  0
  9 19  4  0
 10 21  4  0
 10 23  4  0
 18 19  4  0
 21 23  4  0
 26 27  1  0
M  END
$$$$

 Created by Python create_sdf_string function

 29 73  0  0  0  0  0  0  0  0999 V2000
    5.8184  -10.4562   16.5604 O   0  0  0  0  0  0  0  0  0  0  0  0
    6.2641   -6.7691   14.7082 O   0  0  0  0  0  0  0  0  0  0  0  0
    9.4054   -7.7077   17.5601 F   0  0  0  0  0  0  0  0  0  0  0  0
    8.0014   -7.4527   17.4827 C   0  0  0  0  0  0  0  0  0  0  0  0
   10.2727   -2.4243   15.5330 C   0  0  0  0  0  0  0  0  0  0  0  0
    9.3242   -4.3408   15.4795 C   0  0  0  0  0  0  0  0  0  0  0  0
   11.8306   -2.5867   17.4916 C   0  0  0  0  0  0  0  0  0  0  0  0
    5.3125   -8.7142   17.6944 P   0  0  0  0  0  0  0  0  0  0  0  0
    8.9946   -8.7647   16.1412 O   0  0  0  0  0  0  0  0  0  0  0  0
    3.8408  -10.2780   18.7590 Br  0  0  0  0  0  0  0  0  0  0  0  0
    8.6729   -4.7999   18.8387 P   0  0  0  0  0  0  0  0  0  0  0  0
    2.2864  -11.5270   18.2367 Cl  0  0  0  0  0  0  0  0  0  0  0  0
    9.4472   -4.8612   19.3531 N   0  0  0  0  0  0  0  0  0  0  0  0
    4.6751   -7.7401   15.6051 N   0  0  0  0  0  0  0  0  0  0  0  0
    9.2313   -3.6343   18.6478 Br  0  0  0  0  0  0  0  0  0  0  0  0
    9.1564   -3.2002   17.2427 N   0  0  0  0  0  0  0  0  0  0  0  0
    8.7129   -6.6232   17.2655 C   0  0  0  0  0  0  0  0  0  0  0  0
   10.6562   -5.9252   17.1584 S   0  0  0  0  0  0  0  0  0  0  0  0
    9.1312   -7.8722   18.5966 Cl  0  0  0  0  0  0  0  0  0  0  0  0
    5.7348   -7.3585   17.0125 F   0  0  0  0  0  0  0  0  0  0  0  0
    3.2891  -10.1519   16.9772 He  0  0  0  0  0  0  0  0  0  0  0  0
    2.9123   -7.8404   14.2046 He  0  0  0  0  0  0  0  0  0  0  0  0
   10.0904   -6.6913   18.7340 He  0  0  0  0  0  0  0  0  0  0  0  0
   10.5888   -3.6571   17.9355 He  0  0  0  0  0  0  0  0  0  0  0  0
    4.5421   -7.2256   17.5950 He  0  0  0  0  0  0  0  0  0  0  0  0
   12.1405   -4.1060   17.6140 He  0  0  0  0  0  0  0  0  0  0  0  0
    3.3657  -10.7656   17.8829 He  0  0  0  0  0  0  0  0  0  0  0  0
    6.1260   -6.5738   16.2986 He  0  0  0  0  0  0  0  0  0  0  0  0
    5.4509   -5.9831   15.4536 He  0  0  0  0  0  0  0  0  0  0  0  0
  1  6  4  0
  1  7  4  0
  1  9  2  0
  1 10  1  0
  1 11  4  0
  1 15  1  0
  1 17  3  0
  1 19  3  0
  1 20  3  0
  2  4  1  0
  2  7  1  0
  2 10  4  0
  2 12  2  0
  2 15  2  0
  2 17  1  0
  2 20  1  0
  3  5  4  0
  3 11  1  0
  3 18  3  0
  3 19  2  0
  4  8  3  0
  4 13  4  0
  4 15  3  0
  4 16  4  0
  4 17  1  0
  4 18  1  0
  4 20  1  0
  5  7  1  0
  5 11  1  0
  5 14  3  0
  5 15  2  0
  6  8  4  0
  6  9  4  0
  6 11  4  0
  6 12  2  0
  6 18  4  0
  6 20  3  0
  7  8  3  0
  7  9  3  0
  7 10  4  0
  7 13  4  0
  7 15  2  0
  7 16  4  0
  7 17  2  0
  8  9  4  0
  8 11  4  0
  8 12  2  0
  8 16  4  0
  8 18  3  0
  9 10  4  0
  9 19  4  0
 10 11  4  0
 10 12  1  0
 10 13  3  0
 10 16  4  0
 11 12  1  0
 11 13  3  0
 11 14  4  0
 13 14  2  0
 13 15  3  0
 13 16  3  0
 13 18  3  0
 13 20  4  0
 14 16  3  0
 14 17  1  0
 14 18  1  0
 15 18  1  0
 16 18  1  0
 16 20  4  0
 17 18  4  0
 17 20  4  0
 18 19  1  0
 19 20  2  0
M  END
$$$$

 Created by Python create_sdf_string function

 29  8  0  0  0  0  0  0  0  0999 V2000
    3.0511   -9.5935   17.0646 C   0  0  0  0  0  0  0  0  0  0  0  0
    5.5182  -10.0018   17.2420 O   0  0  0  0  0  0  0  0  0  0  0  0
    3.2974   -8.2121   15.5476 C   0  0  0  0  0  0  0  0  0  0  0  0
    6.4338   -6.6980   15.3526 O   0  0  0  0  0  0  0  0  0  0  0  0
    9.4114   -7.6979   17.9639 C   0  0  0  0  0  0  0  0  0  0  0  0
    7.5987   -7.3707   17.1952 C   0  0  0  0  0  0  0  0  0  0  0  0
   10.0226   -6.5799   18.5636 F   0  0  0  0  0  0  0  0  0  0  0  0
   10.9426   -3.5644   15.7337 C   0  0  0  0  0  0  0  0  0  0  0  0
    9.4729   -4.3285   16.1955 C   0  0  0  0  0  0  0  0  0  0  0  0
   11.4877   -3.0188   17.2687 C   0  0  0  0  0  0  0  0  0  0  0  0
    5.0981   -9.0602   17.5329 C   0  0  0  0  0  0  0  0  0  0  0  0
    8.5363   -8.4390   16.0879 O   0  0  0  0  0  0  0  0  0  0  0  0
    3.7592  -10.6158   18.1754 C   0  0  0  0  0  0  0  0  0  0  0  0
    9.1674   -5.2473   18.9293 C   0  0  0  0  0  0  0  0  0  0  0  0
    2.5221  -11.0132   18.4712 C   0  0  0  0  0  0  0  0  0  0  0  0
    9.9439   -4.6797   19.5878 C   0  0  0  0  0  0  0  0  0  0  0  0
    4.1695   -7.9242   15.8504 C   0  0  0  0  0  0  0  0  0  0  0  0
   10.0542   -4.1510   19.3359 C   0  0  0  0  0  0  0  0  0  0  0  0
   10.5234   -4.0881   18.3809 C   0  0  0  0  0  0  0  0  0  0  0  0
    4.6808   -8.0881   16.9304 C   0  0  0  0  0  0  0  0  0  0  0  0
   11.5302   -3.7685   17.5473 C   0  0  0  0  0  0  0  0  0  0  0  0
    3.6019  -10.3633   17.9079 C   0  0  0  0  0  0  0  0  0  0  0  0
    9.8943   -3.8377   16.8554 C   0  0  0  0  0  0  0  0  0  0  0  0
    6.2371   -7.1306   16.4526 C   0  0  0  0  0  0  0  0  0  0  0  0
    8.4715   -6.7512   17.2994 C   0  0  0  0  0  0  0  0  0  0  0  0
    9.9690   -5.6190   17.6348 C   0  0  0  0  0  0  0  0  0  0  0  0
    9.0011   -8.0375   18.3196 C   0  0  0  0  0  0  0  0  0  0  0  0
    6.0848   -7.6801   17.0842 C   0  0  0  0  0  0  0  0  0  0  0  0
    5.5431   -6.9251   15.6605 C   0  0  0  0  0  0  0  0  0  0  0  0
  3 17  4  0
  5 27  1  0
  6 25  1  0
  6 28  1  0
 10 21  4  0
 13 15  1  0
 13 22  4  0
 16 19  1  0
M  END
$$$$

 Created by Python create_sdf_string function

 29 54  0  0  0  0  0  0  0  0999 V2000
    4.1653  -10.3293   16.8511 Cl  0  0  0  0  0  0  0  0  0  0  0  0
    5.2973  -10.6889   17.0416 C   0  0  0  0  0  0  0  0  0  0  0  0
    4.2614   -7.7807   15.8351 F   0  0  0  0  0  0  0  0  0  0  0  0
    6.2599   -7.0421   15.6350 Se  0  0  0  0  0  0  0  0  0  0  0  0
    6.6839   -8.0724   17.2678 C   0  0  0  0  0  0  0  0  0  0  0  0
   10.4274   -6.7946   18.3837 F   0  0  0  0  0  0  0  0  0  0  0  0
    9.5754   -1.8385   14.4341 Cl  0  0  0  0  0  0  0  0  0  0  0  0
   11.5865   -3.8875   16.6897 I   0  0  0  0  0  0  0  0  0  0  0  0
    4.2759  -10.1032   18.9864 P   0  0  0  0  0  0  0  0  0  0  0  0
    5.5088  -11.2564   20.3091 P   0  0  0  0  0  0  0  0  0  0  0  0
    1.9219  -11.4069   17.6839 C   0  0  0  0  0  0  0  0  0  0  0  0
    4.5534   -7.9035   16.4127 C   0  0  0  0  0  0  0  0  0  0  0  0
   10.5771   -2.7412   20.1447 C   0  0  0  0  0  0  0  0  0  0  0  0
   11.6335   -4.9619   18.4835 C   0  0  0  0  0  0  0  0  0  0  0  0
    8.7185   -6.7380   18.0571 C   0  0  0  0  0  0  0  0  0  0  0  0
    9.9411   -5.1322   17.0392 C   0  0  0  0  0  0  0  0  0  0  0  0
    9.4339   -7.4155   18.5358 C   0  0  0  0  0  0  0  0  0  0  0  0
    6.4949   -8.8819   16.1353 C   0  0  0  0  0  0  0  0  0  0  0  0
    7.3556   -6.9060   18.4307 He  0  0  0  0  0  0  0  0  0  0  0  0
    9.2588   -4.0333   16.3488 He  0  0  0  0  0  0  0  0  0  0  0  0
    8.5620   -9.4074   17.0147 He  0  0  0  0  0  0  0  0  0  0  0  0
    8.8426   -4.2948   19.5737 He  0  0  0  0  0  0  0  0  0  0  0  0
    9.9361   -4.5790   19.3775 He  0  0  0  0  0  0  0  0  0  0  0  0
   11.0039   -4.1292   18.3693 He  0  0  0  0  0  0  0  0  0  0  0  0
    5.3492  -10.3206   16.4631 He  0  0  0  0  0  0  0  0  0  0  0  0
    3.2194   -9.9744   17.6644 He  0  0  0  0  0  0  0  0  0  0  0  0
   10.0243   -2.9925   17.9569 He  0  0  0  0  0  0  0  0  0  0  0  0
    4.8098   -6.2053   18.7953 He  0  0  0  0  0  0  0  0  0  0  0  0
    6.4350   -5.3064   15.5655 He  0  0  0  0  0  0  0  0  0  0  0  0
  1  9  1  0
  1 11  1  0
  1 12  1  0
  1 15  1  0
  1 18  2  0
  2  3  1  0
  2  6  3  0
  2  8  3  0
  2 10  4  0
  2 11  2  0
  2 12  2  0
  2 13  1  0
  2 15  2  0
  2 17  4  0
  2 18  2  0
  3  6  1  0
  3  7  1  0
  3 10  1  0
  3 17  1  0
  4  6  1  0
  4 13  3  0
  4 16  2  0
  5  7  1  0
  5  9  1  0
  5 12  4  0
  5 13  2  0
  5 14  2  0
  5 18  4  0
  6  8  2  0
  6  9  3  0
  6 10  4  0
  6 12  1  0
  7 15  2  0
  8  9  3  0
  8 12  2  0
  8 14  4  0
  8 17  3  0
  9 11  2  0
  9 18  4  0
 10 11  1  0
 10 12  3  0
 10 17  3  0
 11 12  3  0
 11 15  1  0
 11 16  4  0
 11 17  2  0
 11 18  2  0
 12 15  2  0
 13 16  3  0
 13 18  1  0
 14 16  3  0
 14 18  3  0
 15 16  4  0
 15 18  4  0
M  END
$$$$

 Created by Python create_sdf_string function

 29  6  0  0  0  0  0  0  0  0999 V2000
    3.7075   -9.5887   17.1346 C   0  0  0  0  0  0  0  0  0  0  0  0
    5.2015  -10.0315   17.2307 C   0  0  0  0  0  0  0  0  0  0  0  0
    4.3947   -7.9573   16.0790 C   0  0  0  0  0  0  0  0  0  0  0  0
    6.0899   -7.1330   15.8380 C   0  0  0  0  0  0  0  0  0  0  0  0
    7.4965   -7.0113   17.8390 C   0  0  0  0  0  0  0  0  0  0  0  0
    6.8458   -8.0886   17.2449 C   0  0  0  0  0  0  0  0  0  0  0  0
   10.1450   -6.7141   18.5703 C   0  0  0  0  0  0  0  0  0  0  0  0
    9.7919   -3.5085   15.6145 C   0  0  0  0  0  0  0  0  0  0  0  0
    9.5063   -4.2964   16.4695 C   0  0  0  0  0  0  0  0  0  0  0  0
   11.3831   -3.6949   16.7368 C   0  0  0  0  0  0  0  0  0  0  0  0
    4.0499  -10.3560   18.1803 C   0  0  0  0  0  0  0  0  0  0  0  0
    8.3516   -8.6721   17.0034 C   0  0  0  0  0  0  0  0  0  0  0  0
    4.3779  -10.8200   18.8274 C   0  0  0  0  0  0  0  0  0  0  0  0
    9.7560   -4.7347   19.6296 C   0  0  0  0  0  0  0  0  0  0  0  0
    2.4031  -10.8076   18.3131 C   0  0  0  0  0  0  0  0  0  0  0  0
   10.3435   -5.0009   19.3924 C   0  0  0  0  0  0  0  0  0  0  0  0
    4.7609   -8.0222   16.4196 C   0  0  0  0  0  0  0  0  0  0  0  0
   10.8907   -3.6875   20.1414 C   0  0  0  0  0  0  0  0  0  0  0  0
   11.0093   -4.1391   18.6346 C   0  0  0  0  0  0  0  0  0  0  0  0
    5.3425   -9.9751   16.8845 C   0  0  0  0  0  0  0  0  0  0  0  0
   11.2211   -4.6711   18.4602 C   0  0  0  0  0  0  0  0  0  0  0  0
    2.9298   -9.9071   17.4279 C   0  0  0  0  0  0  0  0  0  0  0  0
   10.6995   -3.5479   17.4180 C   0  0  0  0  0  0  0  0  0  0  0  0
    5.6222   -7.2540   18.2003 C   0  0  0  0  0  0  0  0  0  0  0  0
    8.8441   -6.6722   17.8465 C   0  0  0  0  0  0  0  0  0  0  0  0
    9.6182   -5.1689   17.3581 C   0  0  0  0  0  0  0  0  0  0  0  0
    9.1706   -7.6325   18.1943 C   0  0  0  0  0  0  0  0  0  0  0  0
    6.8098   -8.7609   16.4485 C   0  0  0  0  0  0  0  0  0  0  0  0
    7.1122   -6.1109   15.7156 C   0  0  0  0  0  0  0  0  0  0  0  0
  2 20  1  0
  3 17  1  0
  6 28  1  0
  8  9  1  0
 11 13  4  0
 25 27  1  0
M  END
$$$$

 Created by Python create_sdf_string function

 29 21  0  0  0  0  0  0  0  0999 V2000
    4.7564   -9.5975   16.6204 C   0  0  0  0  0  0  0  0  0  0  0  0
    4.2402   -7.6370   14.6730 C   0  0  0  0  0  0  0  0  0  0  0  0
    5.1421   -6.4704   15.2093 C   0  0  0  0  0  0  0  0  0  0  0  0
   10.2530   -6.5653   17.4018 C   0  0  0  0  0  0  0  0  0  0  0  0
   11.5287   -4.4684   15.0583 P   0  0  0  0  0  0  0  0  0  0  0  0
    4.3049   -9.6076   17.7057 P   0  0  0  0  0  0  0  0  0  0  0  0
    9.4592   -4.1894   18.7835 Cl  0  0  0  0  0  0  0  0  0  0  0  0
    2.6940  -11.6431   17.8039 C   0  0  0  0  0  0  0  0  0  0  0  0
    9.9481   -5.0588   19.4595 C   0  0  0  0  0  0  0  0  0  0  0  0
    4.9553   -8.5374   16.7853 N   0  0  0  0  0  0  0  0  0  0  0  0
    9.9728   -4.1175   20.2064 I   0  0  0  0  0  0  0  0  0  0  0  0
    9.5921   -4.7050   18.4827 C   0  0  0  0  0  0  0  0  0  0  0  0
    9.4270   -4.8893   16.0103 O   0  0  0  0  0  0  0  0  0  0  0  0
    9.5782   -8.0565   17.6701 F   0  0  0  0  0  0  0  0  0  0  0  0
    5.7063   -9.5326   18.5944 He  0  0  0  0  0  0  0  0  0  0  0  0
    7.2792   -7.4520   17.9727 He  0  0  0  0  0  0  0  0  0  0  0  0
    7.5185   -8.1834   15.9160 He  0  0  0  0  0  0  0  0  0  0  0  0
    8.3091   -4.3792   15.9512 He  0  0  0  0  0  0  0  0  0  0  0  0
    9.3893   -3.6920   16.3649 He  0  0  0  0  0  0  0  0  0  0  0  0
    8.3037   -8.2450   15.7192 He  0  0  0  0  0  0  0  0  0  0  0  0
    3.5103  -10.0363   19.4505 He  0  0  0  0  0  0  0  0  0  0  0  0
   11.6003   -4.1047   17.1797 He  0  0  0  0  0  0  0  0  0  0  0  0
    5.0876  -11.2201   16.8292 He  0  0  0  0  0  0  0  0  0  0  0  0
    2.7510  -11.3045   17.4024 He  0  0  0  0  0  0  0  0  0  0  0  0
   11.9213   -4.6578   17.5987 He  0  0  0  0  0  0  0  0  0  0  0  0
    5.4793   -6.2588   19.7976 He  0  0  0  0  0  0  0  0  0  0  0  0
    8.8203   -6.4194   17.5842 He  0  0  0  0  0  0  0  0  0  0  0  0
    6.4084   -9.4578   16.3426 He  0  0  0  0  0  0  0  0  0  0  0  0
    8.1642   -5.7433   15.1486 He  0  0  0  0  0  0  0  0  0  0  0  0
  1  2  1  0
  1 10  3  0
  1 14  1  0
  2  7  1  0
  2 11  1  0
  2 12  4  0
  3 10  4  0
  3 13  2  0
  3 14  2  0
  4  8  3  0
  4 10  4  0
  4 12  1  0
  5 13  3  0
  7  8  2  0
  8 10  1  0
  8 11  4  0
  8 12  1  0
  9 10  4  0
  9 12  3  0
 11 13  1  0
 11 14  1  0
M  END
$$$$

 Created by Python create_sdf_string function

 29 14  0  0  0  0  0  0  0  0999 V2000
    4.6188   -9.4139   16.5372 C   0  0  0  0  0  0  0  0  0  0  0  0
    5.3425   -9.1752   18.4234 C   0  0  0  0  0  0  0  0  0  0  0  0
    4.8475   -8.0825   15.4564 C   0  0  0  0  0  0  0  0  0  0  0  0
    5.5521   -7.2479   15.4582 C   0  0  0  0  0  0  0  0  0  0  0  0
    7.4958   -7.3848   17.6558 C   0  0  0  0  0  0  0  0  0  0  0  0
    7.3887   -7.9711   16.1745 C   0  0  0  0  0  0  0  0  0  0  0  0
    9.8885   -6.3779   17.9783 C   0  0  0  0  0  0  0  0  0  0  0  0
    8.8421   -4.6522   16.1546 C   0  0  0  0  0  0  0  0  0  0  0  0
    9.8408   -3.9825   16.3080 C   0  0  0  0  0  0  0  0  0  0  0  0
   11.2509   -3.8642   15.8878 C   0  0  0  0  0  0  0  0  0  0  0  0
    4.5063   -9.6501   17.9650 C   0  0  0  0  0  0  0  0  0  0  0  0
    8.0851   -8.1978   15.6632 C   0  0  0  0  0  0  0  0  0  0  0  0
    3.6225  -10.8864   18.6549 C   0  0  0  0  0  0  0  0  0  0  0  0
   10.0772   -4.5313   19.1155 C   0  0  0  0  0  0  0  0  0  0  0  0
    2.7657  -11.1148   18.5105 C   0  0  0  0  0  0  0  0  0  0  0  0
   10.1914   -5.0397   19.3088 C   0  0  0  0  0  0  0  0  0  0  0  0
    4.9907   -8.7267   17.0268 C   0  0  0  0  0  0  0  0  0  0  0  0
   10.2579   -4.2763   20.2512 O   0  0  0  0  0  0  0  0  0  0  0  0
   11.3574   -3.9782   17.2868 C   0  0  0  0  0  0  0  0  0  0  0  0
    4.8449  -10.3838   17.0398 C   0  0  0  0  0  0  0  0  0  0  0  0
    9.9960   -5.3487   18.3969 C   0  0  0  0  0  0  0  0  0  0  0  0
    2.8558  -10.4591   17.7622 C   0  0  0  0  0  0  0  0  0  0  0  0
   11.4256   -4.2358   17.7210 C   0  0  0  0  0  0  0  0  0  0  0  0
    6.3423   -7.2351   18.6287 C   0  0  0  0  0  0  0  0  0  0  0  0
    8.5277   -6.4776   17.7332 C   0  0  0  0  0  0  0  0  0  0  0  0
    9.3417   -5.0124   16.2402 C   0  0  0  0  0  0  0  0  0  0  0  0
    9.2206   -8.0347   17.6433 C   0  0  0  0  0  0  0  0  0  0  0  0
    6.7036   -9.0699   16.1008 C   0  0  0  0  0  0  0  0  0  0  0  0
    7.9793   -6.0492   15.7684 C   0  0  0  0  0  0  0  0  0  0  0  0
  1  3  1  0
  1 20  4  0
  2 11  4  0
  3  4  1  0
  5  6  1  0
  5 24  1  0
  5 25  1  0
  6 12  1  0
  6 28  1  0
  7 21  1  0
  8 26  1  0
  9 10  1  0
 13 15  4  0
 19 23  1  0
M  END
$$$$

 Created by Python create_sdf_string function

 29 62  0  0  0  0  0  0  0  0999 V2000
    4.1835   -9.3553   17.3781 N   0  0  0  0  0  0  0  0  0  0  0  0
    4.7211   -9.3428   17.3910 N   0  0  0  0  0  0  0  0  0  0  0  0
    4.8681   -7.5540   16.2200 Se  0  0  0  0  0  0  0  0  0  0  0  0
    7.3684   -9.6446   14.8491 P   0  0  0  0  0  0  0  0  0  0  0  0
    9.3889   -6.6871   17.2189 C   0  0  0  0  0  0  0  0  0  0  0  0
   11.7541   -4.5507   15.4609 C   0  0  0  0  0  0  0  0  0  0  0  0
    4.8274   -9.3323   17.6813 C   0  0  0  0  0  0  0  0  0  0  0  0
    4.6894  -11.3634   18.0276 C   0  0  0  0  0  0  0  0  0  0  0  0
    8.7452   -5.2601   17.8503 I   0  0  0  0  0  0  0  0  0  0  0  0
    9.6411   -3.3029   20.7588 O   0  0  0  0  0  0  0  0  0  0  0  0
   11.3851   -3.3028   18.7863 Cl  0  0  0  0  0  0  0  0  0  0  0  0
    9.2906   -4.5127   20.3713 C   0  0  0  0  0  0  0  0  0  0  0  0
    3.3890  -11.8261   18.2786 C   0  0  0  0  0  0  0  0  0  0  0  0
   10.6286   -4.9961   17.8587 C   0  0  0  0  0  0  0  0  0  0  0  0
    4.6081   -6.5145   20.4409 C   0  0  0  0  0  0  0  0  0  0  0  0
    9.7471   -6.7044   16.3474 O   0  0  0  0  0  0  0  0  0  0  0  0
    9.1415   -7.2895   17.9314 C   0  0  0  0  0  0  0  0  0  0  0  0
    8.5925   -8.8536   16.2087 C   0  0  0  0  0  0  0  0  0  0  0  0
    7.2537   -5.8437   15.0593 O   0  0  0  0  0  0  0  0  0  0  0  0
    5.5634   -7.2321   16.4966 He  0  0  0  0  0  0  0  0  0  0  0  0
    7.7178   -8.0609   16.2850 He  0  0  0  0  0  0  0  0  0  0  0  0
    9.8773   -3.5368   15.9032 He  0  0  0  0  0  0  0  0  0  0  0  0
    7.7877   -4.4773   16.6461 He  0  0  0  0  0  0  0  0  0  0  0  0
    8.4809   -7.5497   15.3225 He  0  0  0  0  0  0  0  0  0  0  0  0
   10.6689   -6.0158   19.7099 He  0  0  0  0  0  0  0  0  0  0  0  0
    3.4582  -12.0502   18.9571 He  0  0  0  0  0  0  0  0  0  0  0  0
    4.3419   -8.6091   17.0208 He  0  0  0  0  0  0  0  0  0  0  0  0
    5.6624  -11.3755   16.5371 He  0  0  0  0  0  0  0  0  0  0  0  0
    7.6137   -6.8292   18.5076 He  0  0  0  0  0  0  0  0  0  0  0  0
  1  5  3  0
  1 12  3  0
  1 19  1  0
  2  3  3  0
  2  4  4  0
  2  5  4  0
  2  7  4  0
  2  8  1  0
  2  9  2  0
  2 10  1  0
  2 11  3  0
  2 13  1  0
  2 14  3  0
  2 17  3  0
  2 18  2  0
  3  5  1  0
  3 11  4  0
  3 14  1  0
  3 15  4  0
  3 16  3  0
  3 17  2  0
  3 18  4  0
  3 19  3  0
  4  7  1  0
  4  8  1  0
  4  9  4  0
  4 11  4  0
  4 18  1  0
  5 14  2  0
  5 15  2  0
  5 18  1  0
  5 19  3  0
  6  7  3  0
  6 15  3  0
  6 18  2  0
  7 16  3  0
  8  9  2  0
  8 12  1  0
  8 19  1  0
  9 11  2  0
  9 17  2  0
 10 11  1  0
 10 13  2  0
 10 19  1  0
 11 13  4  0
 11 14  3  0
 11 17  3  0
 12 15  3  0
 12 16  1  0
 12 17  3  0
 12 18  4  0
 13 14  1  0
 13 16  2  0
 14 17  3  0
 14 18  3  0
 14 19  1  0
 15 17  4  0
 15 18  1  0
 16 17  1  0
 16 19  3  0
 17 18  2  0
 18 19  2  0
M  END
$$$$

 Created by Python create_sdf_string function

 29 12  0  0  0  0  0  0  0  0999 V2000
    4.2701   -9.1825   17.3589 C   0  0  0  0  0  0  0  0  0  0  0  0
    4.8228   -9.5155   17.4586 C   0  0  0  0  0  0  0  0  0  0  0  0
    5.7293   -7.5427   16.3736 C   0  0  0  0  0  0  0  0  0  0  0  0
    5.3163   -7.5694   16.3102 C   0  0  0  0  0  0  0  0  0  0  0  0
    7.6358   -8.0547   16.6824 C   0  0  0  0  0  0  0  0  0  0  0  0
    7.2884   -9.0540   15.5454 C   0  0  0  0  0  0  0  0  0  0  0  0
    9.2886   -6.2197   17.0405 C   0  0  0  0  0  0  0  0  0  0  0  0
   10.3359   -3.9447   16.1145 C   0  0  0  0  0  0  0  0  0  0  0  0
    8.6279   -5.3538   16.3635 C   0  0  0  0  0  0  0  0  0  0  0  0
   11.0263   -4.0418   16.1683 C   0  0  0  0  0  0  0  0  0  0  0  0
    4.9503   -9.4057   17.5862 C   0  0  0  0  0  0  0  0  0  0  0  0
    8.3282   -7.8049   15.4448 C   0  0  0  0  0  0  0  0  0  0  0  0
    4.1104  -10.9170   18.1207 C   0  0  0  0  0  0  0  0  0  0  0  0
   10.5818   -5.2220   19.5535 C   0  0  0  0  0  0  0  0  0  0  0  0
    2.9622  -11.6116   19.0615 N   0  0  0  0  0  0  0  0  0  0  0  0
    9.2270   -5.5090   17.8129 C   0  0  0  0  0  0  0  0  0  0  0  0
    4.3763   -8.7553   17.2899 C   0  0  0  0  0  0  0  0  0  0  0  0
   10.3210   -3.9003   20.5516 O   0  0  0  0  0  0  0  0  0  0  0  0
   11.0097   -3.6857   18.7186 C   0  0  0  0  0  0  0  0  0  0  0  0
    5.6658  -10.7877   16.8233 C   0  0  0  0  0  0  0  0  0  0  0  0
    9.9937   -4.4900   19.8516 C   0  0  0  0  0  0  0  0  0  0  0  0
    3.5333  -11.2725   18.5006 C   0  0  0  0  0  0  0  0  0  0  0  0
   10.4395   -4.8518   18.2180 C   0  0  0  0  0  0  0  0  0  0  0  0
    5.8122   -7.4147   18.9645 C   0  0  0  0  0  0  0  0  0  0  0  0
    7.6899   -7.2384   18.1808 C   0  0  0  0  0  0  0  0  0  0  0  0
    9.4801   -6.2617   16.7339 O   0  0  0  0  0  0  0  0  0  0  0  0
    9.0610   -7.1330   17.9513 C   0  0  0  0  0  0  0  0  0  0  0  0
    8.3794   -8.4095   16.2148 C   0  0  0  0  0  0  0  0  0  0  0  0
    7.1918   -5.7172   15.4743 O   0  0  0  0  0  0  0  0  0  0  0  0
  2 11  4  0
  3  4  1  0
  5 25  1  0
  6 28  1  0
  8 10  1  0
  9 26  1  0
 12 28  1  0
 13 22  4  0
 15 22  4  0
 18 21  1  0
 25 27  1  0
 26 27  1  0
M  END
$$$$

 Created by Python create_sdf_string function

 29 68  0  0  0  0  0  0  0  0999 V2000
    5.7285   -7.9643   16.9313 S   0  0  0  0  0  0  0  0  0  0  0  0
    5.0924  -10.2312   17.4929 C   0  0  0  0  0  0  0  0  0  0  0  0
    4.3101   -5.4931   14.8129 C   0  0  0  0  0  0  0  0  0  0  0  0
    8.6629   -6.3418   17.1834 C   0  0  0  0  0  0  0  0  0  0  0  0
    8.8105   -9.6103   14.9534 F   0  0  0  0  0  0  0  0  0  0  0  0
    9.7146   -5.9930   17.4361 C   0  0  0  0  0  0  0  0  0  0  0  0
    9.1905   -4.1134   16.9807 Cl  0  0  0  0  0  0  0  0  0  0  0  0
    8.3462   -3.3063   16.7563 Br  0  0  0  0  0  0  0  0  0  0  0  0
    5.0017  -10.1902   18.2075 N   0  0  0  0  0  0  0  0  0  0  0  0
    6.8655   -8.7233   15.3306 F   0  0  0  0  0  0  0  0  0  0  0  0
    5.0378  -10.5428   18.1131 Br  0  0  0  0  0  0  0  0  0  0  0  0
    8.7286   -4.8877   18.3245 F   0  0  0  0  0  0  0  0  0  0  0  0
    6.0664   -7.5819   16.6170 C   0  0  0  0  0  0  0  0  0  0  0  0
   10.5880   -3.6537   20.1027 O   0  0  0  0  0  0  0  0  0  0  0  0
    6.0070   -9.8178   16.4288 S   0  0  0  0  0  0  0  0  0  0  0  0
    9.4711   -3.1357   18.1233 C   0  0  0  0  0  0  0  0  0  0  0  0
    2.9228  -12.0147   18.2795 C   0  0  0  0  0  0  0  0  0  0  0  0
   11.3479   -4.9565   18.6764 Se  0  0  0  0  0  0  0  0  0  0  0  0
    5.3854   -8.1009   18.1408 C   0  0  0  0  0  0  0  0  0  0  0  0
    9.9919   -7.6970   19.1761 C   0  0  0  0  0  0  0  0  0  0  0  0
    8.8126   -8.0768   15.9189 N   0  0  0  0  0  0  0  0  0  0  0  0
    7.9506   -5.7793   15.1408 O   0  0  0  0  0  0  0  0  0  0  0  0
    5.4647   -7.0742   17.5809 He  0  0  0  0  0  0  0  0  0  0  0  0
   10.6351   -2.6228   16.2790 He  0  0  0  0  0  0  0  0  0  0  0  0
    9.8300   -4.2079   18.7362 He  0  0  0  0  0  0  0  0  0  0  0  0
    3.3835  -12.3855   19.7705 He  0  0  0  0  0  0  0  0  0  0  0  0
   11.0643   -4.9708   19.5220 He  0  0  0  0  0  0  0  0  0  0  0  0
    6.8164   -9.6390   17.7119 He  0  0  0  0  0  0  0  0  0  0  0  0
    9.9348   -4.5954   16.5145 He  0  0  0  0  0  0  0  0  0  0  0  0
  1  3  4  0
  1  9  2  0
  1 18  3  0
  1 20  3  0
  2  7  2  0
  2  9  4  0
  2 11  1  0
  2 12  1  0
  2 13  3  0
  2 17  3  0
  2 21  4  0
  2 22  2  0
  3 19  1  0
  4  9  1  0
  5 11  3  0
  5 16  4  0
  5 17  1  0
  6  9  1  0
  6 14  4  0
  6 20  3  0
  6 21  2  0
  7  8  3  0
  7 10  2  0
  7 16  4  0
  7 17  1  0
  7 18  4  0
  7 21  2  0
  8  9  1  0
  8 11  4  0
  8 15  2  0
  8 16  4  0
  8 17  3  0
  8 19  2  0
  8 20  4  0
  8 21  2  0
  8 22  4  0
  9 10  2  0
  9 11  2  0
  9 14  1  0
  9 16  3  0
  9 17  1  0
  9 19  2  0
  9 20  1  0
  9 22  2  0
 10 14  3  0
 10 18  3  0
 10 20  4  0
 11 12  1  0
 11 13  3  0
 11 14  4  0
 11 18  3  0
 12 14  4  0
 12 16  1  0
 12 20  2  0
 12 21  4  0
 12 22  3  0
 13 15  3  0
 13 18  3  0
 13 19  3  0
 14 22  3  0
 15 17  1  0
 15 18  1  0
 16 20  3  0
 16 21  2  0
 17 22  2  0
 19 21  2  0
 19 22  1  0
 20 22  2  0
M  END
$$$$

 Created by Python create_sdf_string function

 29  8  0  0  0  0  0  0  0  0999 V2000
    5.6167   -7.7144   16.7403 C   0  0  0  0  0  0  0  0  0  0  0  0
    4.6958  -10.4174   17.7965 C   0  0  0  0  0  0  0  0  0  0  0  0
    5.7474   -7.2961   17.3616 C   0  0  0  0  0  0  0  0  0  0  0  0
    5.2784   -6.8334   15.4137 F   0  0  0  0  0  0  0  0  0  0  0  0
    8.5386   -6.6481   17.0381 C   0  0  0  0  0  0  0  0  0  0  0  0
    8.1147   -8.7827   15.2431 F   0  0  0  0  0  0  0  0  0  0  0  0
    9.3611   -6.4967   17.8393 C   0  0  0  0  0  0  0  0  0  0  0  0
    9.7337   -4.2118   16.8034 C   0  0  0  0  0  0  0  0  0  0  0  0
    9.1333   -3.8905   16.1415 C   0  0  0  0  0  0  0  0  0  0  0  0
   11.0325   -3.3730   16.5870 C   0  0  0  0  0  0  0  0  0  0  0  0
    4.4988  -10.3146   18.2064 C   0  0  0  0  0  0  0  0  0  0  0  0
    7.1135   -8.4729   15.7051 C   0  0  0  0  0  0  0  0  0  0  0  0
    4.2568  -10.7315   18.2309 C   0  0  0  0  0  0  0  0  0  0  0  0
   10.1658   -4.6994   18.9893 C   0  0  0  0  0  0  0  0  0  0  0  0
    2.9957  -11.7489   19.1399 N   0  0  0  0  0  0  0  0  0  0  0  0
    9.4259   -5.4673   18.6079 C   0  0  0  0  0  0  0  0  0  0  0  0
    5.9470   -7.6019   16.5687 C   0  0  0  0  0  0  0  0  0  0  0  0
   10.7062   -3.9931   20.4320 O   0  0  0  0  0  0  0  0  0  0  0  0
   10.7700   -4.8017   19.8423 C   0  0  0  0  0  0  0  0  0  0  0  0
    6.0622   -9.6668   16.6240 C   0  0  0  0  0  0  0  0  0  0  0  0
   10.3303   -3.9377   18.0264 C   0  0  0  0  0  0  0  0  0  0  0  0
    3.2141  -11.4101   18.7136 C   0  0  0  0  0  0  0  0  0  0  0  0
   11.1616   -4.8437   18.9250 C   0  0  0  0  0  0  0  0  0  0  0  0
    5.4078   -8.5495   17.6768 C   0  0  0  0  0  0  0  0  0  0  0  0
    6.5500   -9.2706   17.2945 C   0  0  0  0  0  0  0  0  0  0  0  0
   10.0532   -4.4498   16.6123 C   0  0  0  0  0  0  0  0  0  0  0  0
    9.7827   -7.5416   18.6876 C   0  0  0  0  0  0  0  0  0  0  0  0
    8.3961   -7.9608   16.4291 F   0  0  0  0  0  0  0  0  0  0  0  0
    7.7620   -5.9166   15.7540 F   0  0  0  0  0  0  0  0  0  0  0  0
  1 17  1  0
  2 11  4  0
  5  7  1  0
  6 12  1  0
  7 27  1  0
 15 22  4  0
 18 19  1  0
 20 25  1  0
M  END
$$$$

 Created by Python create_sdf_string function

 29 62  0  0  0  0  0  0  0  0999 V2000
    5.6961   -8.3309   16.7673 C   0  0  0  0  0  0  0  0  0  0  0  0
    5.2559  -10.2278   17.7281 C   0  0  0  0  0  0  0  0  0  0  0  0
    5.7001   -4.8645   17.1628 N   0  0  0  0  0  0  0  0  0  0  0  0
    6.1205   -6.6419   16.6465 F   0  0  0  0  0  0  0  0  0  0  0  0
    9.1510   -6.4593   14.9171 C   0  0  0  0  0  0  0  0  0  0  0  0
    8.6302   -9.1934   15.2787 O   0  0  0  0  0  0  0  0  0  0  0  0
   10.7835   -4.4214   15.5251 C   0  0  0  0  0  0  0  0  0  0  0  0
   12.0304   -2.5843   16.8169 C   0  0  0  0  0  0  0  0  0  0  0  0
    4.9545  -10.9229   18.1402 C   0  0  0  0  0  0  0  0  0  0  0  0
    5.4020   -9.5773   17.1991 S   0  0  0  0  0  0  0  0  0  0  0  0
   10.6511   -4.0474   18.7989 C   0  0  0  0  0  0  0  0  0  0  0  0
    9.3122   -6.2874   19.2476 C   0  0  0  0  0  0  0  0  0  0  0  0
    7.3712   -8.2830   17.0795 C   0  0  0  0  0  0  0  0  0  0  0  0
   11.3472   -4.1765   19.9136 O   0  0  0  0  0  0  0  0  0  0  0  0
    6.2383  -10.1578   17.5500 C   0  0  0  0  0  0  0  0  0  0  0  0
   11.2994   -3.8417   17.8418 S   0  0  0  0  0  0  0  0  0  0  0  0
    4.4412  -12.1540   19.0038 C   0  0  0  0  0  0  0  0  0  0  0  0
    7.4569   -9.0179   16.3713 P   0  0  0  0  0  0  0  0  0  0  0  0
    8.1789   -6.3005   16.2846 O   0  0  0  0  0  0  0  0  0  0  0  0
    8.1689   -4.7547   16.9839 P   0  0  0  0  0  0  0  0  0  0  0  0
    9.4699   -7.5304   18.2225 He  0  0  0  0  0  0  0  0  0  0  0  0
    8.9133   -3.1719   15.6220 He  0  0  0  0  0  0  0  0  0  0  0  0
    6.4698   -8.6146   16.3583 He  0  0  0  0  0  0  0  0  0  0  0  0
    2.4880  -11.6186   20.0512 He  0  0  0  0  0  0  0  0  0  0  0  0
   10.9076   -4.5061   19.3009 He  0  0  0  0  0  0  0  0  0  0  0  0
   11.5990   -5.1424   19.0926 He  0  0  0  0  0  0  0  0  0  0  0  0
    4.5890   -8.9879   18.7173 He  0  0  0  0  0  0  0  0  0  0  0  0
   10.1492   -5.1904   16.9415 He  0  0  0  0  0  0  0  0  0  0  0  0
    9.2239   -8.3194   17.1993 He  0  0  0  0  0  0  0  0  0  0  0  0
  1  4  2  0
  1  7  2  0
  1 10  2  0
  1 12  4  0
  1 13  1  0
  1 14  2  0
  1 15  2  0
  1 18  3  0
  1 19  1  0
  1 20  3  0
  2  3  1  0
  2  9  3  0
  2 11  3  0
  2 12  2  0
  2 13  1  0
  3  4  1  0
  3  5  4  0
  3 10  3  0
  3 15  2  0
  3 18  2  0
  4  6  2  0
  4 10  2  0
  4 12  4  0
  5  7  4  0
  5  9  2  0
  5 11  4  0
  5 12  4  0
  5 14  4  0
  6 10  4  0
  6 14  3  0
  6 19  4  0
  6 20  3  0
  7  9  2  0
  7 14  4  0
  7 16  3  0
  8 10  2  0
  8 15  1  0
  9 12  3  0
  9 13  4  0
  9 16  2  0
  9 18  3  0
 10 15  2  0
 10 17  3  0
 10 19  2  0
 10 20  3  0
 11 17  3  0
 11 18  2  0
 12 13  2  0
 12 15  3  0
 12 20  1  0
 13 16  2  0
 13 20  3  0
 14 16  3  0
 14 18  2  0
 15 18  1  0
 15 19  1  0
 16 18  3  0
 16 20  2  0
 17 18  1  0
 17 20  2  0
 18 19  3  0
 19 20  2  0
M  END
$$$$

 Created by Python create_sdf_string function

 29 10  0  0  0  0  0  0  0  0999 V2000
    5.8466   -8.2313   16.9836 C   0  0  0  0  0  0  0  0  0  0  0  0
    4.5872  -10.5349   18.0066 C   0  0  0  0  0  0  0  0  0  0  0  0
    6.4140   -6.1415   16.5027 C   0  0  0  0  0  0  0  0  0  0  0  0
    6.1632   -6.9672   16.3511 C   0  0  0  0  0  0  0  0  0  0  0  0
    8.8055   -6.4013   15.8731 C   0  0  0  0  0  0  0  0  0  0  0  0
    8.4955   -8.5770   15.1241 O   0  0  0  0  0  0  0  0  0  0  0  0
    9.4159   -7.4893   18.2076 C   0  0  0  0  0  0  0  0  0  0  0  0
   10.8648   -4.0396   16.0872 C   0  0  0  0  0  0  0  0  0  0  0  0
    9.1666   -3.8198   15.8448 C   0  0  0  0  0  0  0  0  0  0  0  0
   11.6457   -3.1502   16.8999 C   0  0  0  0  0  0  0  0  0  0  0  0
    4.3864  -10.7796   18.1798 C   0  0  0  0  0  0  0  0  0  0  0  0
    6.8111   -8.4473   16.0428 C   0  0  0  0  0  0  0  0  0  0  0  0
    4.9633   -9.2547   17.4129 C   0  0  0  0  0  0  0  0  0  0  0  0
   10.7872   -4.0857   18.4585 C   0  0  0  0  0  0  0  0  0  0  0  0
    2.7381  -11.6788   19.2677 N   0  0  0  0  0  0  0  0  0  0  0  0
    9.5171   -6.4412   18.4624 C   0  0  0  0  0  0  0  0  0  0  0  0
    7.5163   -8.2288   17.3009 C   0  0  0  0  0  0  0  0  0  0  0  0
   11.0940   -4.0939   20.1489 O   0  0  0  0  0  0  0  0  0  0  0  0
   10.9395   -4.6417   19.4145 C   0  0  0  0  0  0  0  0  0  0  0  0
    5.9138   -9.8920   17.1857 C   0  0  0  0  0  0  0  0  0  0  0  0
   11.1361   -3.8261   17.7987 C   0  0  0  0  0  0  0  0  0  0  0  0
    3.5190  -11.3889   18.7224 C   0  0  0  0  0  0  0  0  0  0  0  0
   11.3367   -4.9389   19.3830 C   0  0  0  0  0  0  0  0  0  0  0  0
    4.2411   -9.4409   17.9316 C   0  0  0  0  0  0  0  0  0  0  0  0
    7.1286   -9.0523   16.5074 C   0  0  0  0  0  0  0  0  0  0  0  0
    9.9692   -4.7107   17.0997 C   0  0  0  0  0  0  0  0  0  0  0  0
    9.0153   -8.1624   17.5794 C   0  0  0  0  0  0  0  0  0  0  0  0
    8.2391   -6.3324   16.4471 C   0  0  0  0  0  0  0  0  0  0  0  0
    8.8090   -5.5028   16.7571 C   0  0  0  0  0  0  0  0  0  0  0  0
  2 11  4  0
  3  4  1  0
  7 16  1  0
  7 27  1  0
 13 24  4  0
 14 19  4  0
 15 22  1  0
 17 27  1  0
 19 23  1  0
 20 25  1  0
M  END
$$$$

 Created by Python create_sdf_string function

 29 61  0  0  0  0  0  0  0  0999 V2000
    5.6582   -7.9359   17.2114 C   0  0  0  0  0  0  0  0  0  0  0  0
    4.0708  -11.5911   18.0378 C   0  0  0  0  0  0  0  0  0  0  0  0
    5.7479   -6.8106   15.0167 C   0  0  0  0  0  0  0  0  0  0  0  0
    5.9940   -6.5138   15.8382 C   0  0  0  0  0  0  0  0  0  0  0  0
    7.6417   -6.7541   15.5904 F   0  0  0  0  0  0  0  0  0  0  0  0
    8.2602   -8.8946   16.3513 O   0  0  0  0  0  0  0  0  0  0  0  0
   11.8916   -4.7630   16.0193 C   0  0  0  0  0  0  0  0  0  0  0  0
    6.3582   -8.8349   16.3661 C   0  0  0  0  0  0  0  0  0  0  0  0
    2.3132  -10.9120   19.1362 N   0  0  0  0  0  0  0  0  0  0  0  0
    8.3629   -6.2548   17.1533 P   0  0  0  0  0  0  0  0  0  0  0  0
    7.0282   -8.6798   17.5654 C   0  0  0  0  0  0  0  0  0  0  0  0
   10.2911   -4.2253   20.9643 C   0  0  0  0  0  0  0  0  0  0  0  0
   10.8253   -5.2521   20.0729 N   0  0  0  0  0  0  0  0  0  0  0  0
    6.1186  -10.0634   17.0007 S   0  0  0  0  0  0  0  0  0  0  0  0
   11.1834   -5.1524   18.9702 S   0  0  0  0  0  0  0  0  0  0  0  0
    4.0964   -9.3902   17.7113 C   0  0  0  0  0  0  0  0  0  0  0  0
    5.7740   -8.8564   16.2717 C   0  0  0  0  0  0  0  0  0  0  0  0
    9.7558   -4.2947   16.9279 C   0  0  0  0  0  0  0  0  0  0  0  0
    8.5463   -9.4627   18.1020 Se  0  0  0  0  0  0  0  0  0  0  0  0
    9.0996   -6.7113   16.7954 S   0  0  0  0  0  0  0  0  0  0  0  0
    9.7918   -5.7968   17.8142 N   0  0  0  0  0  0  0  0  0  0  0  0
    9.1485   -7.2798   18.4288 He  0  0  0  0  0  0  0  0  0  0  0  0
    8.4103   -3.1581   16.9320 He  0  0  0  0  0  0  0  0  0  0  0  0
   10.6806   -3.1324   16.3213 He  0  0  0  0  0  0  0  0  0  0  0  0
    4.5009   -9.6486   18.7310 He  0  0  0  0  0  0  0  0  0  0  0  0
    5.5293   -9.2587   16.6569 He  0  0  0  0  0  0  0  0  0  0  0  0
   11.3032   -2.2447   18.8645 He  0  0  0  0  0  0  0  0  0  0  0  0
   11.1539   -3.7205   17.9283 He  0  0  0  0  0  0  0  0  0  0  0  0
    3.5327  -10.8489   19.4873 He  0  0  0  0  0  0  0  0  0  0  0  0
  1  2  3  0
  1  5  1  0
  1  9  4  0
  1 18  1  0
  2  6  1  0
  2  8  3  0
  2 13  3  0
  2 17  3  0
  2 20  1  0
  3  4  2  0
  3  8  1  0
  3  9  3  0
  3 12  3  0
  3 16  4  0
  4  5  3  0
  4 11  3  0
  4 16  1  0
  4 17  2  0
  4 19  2  0
  5  8  1  0
  5 14  3  0
  5 15  3  0
  5 19  3  0
  5 21  1  0
  6 12  2  0
  6 17  3  0
  6 21  2  0
  7 10  2  0
  7 12  3  0
  7 14  2  0
  7 16  3  0
  7 18  4  0
  8 10  1  0
  8 12  1  0
  8 14  4  0
  8 15  2  0
  8 18  4  0
  8 20  4  0
  8 21  2  0
  9 10  4  0
  9 11  4  0
  9 15  2  0
  9 17  3  0
  9 20  2  0
 10 14  2  0
 10 16  4  0
 10 19  2  0
 11 17  4  0
 12 20  1  0
 13 19  4  0
 14 16  1  0
 14 17  3  0
 14 20  3  0
 15 17  4  0
 15 18  2  0
 15 19  1  0
 16 19  3  0
 16 20  4  0
 16 21  2  0
 17 18  3  0
 17 21  2  0
M  END
$$$$

 Created by Python create_sdf_string function

 29  9  0  0  0  0  0  0  0  0999 V2000
    5.3264   -7.9692   16.9439 C   0  0  0  0  0  0  0  0  0  0  0  0
    3.8984  -11.1742   18.4409 C   0  0  0  0  0  0  0  0  0  0  0  0
    5.8712   -7.0585   15.2788 C   0  0  0  0  0  0  0  0  0  0  0  0
    6.1523   -6.7640   15.4131 C   0  0  0  0  0  0  0  0  0  0  0  0
    7.6365   -6.6538   15.7519 C   0  0  0  0  0  0  0  0  0  0  0  0
    8.4345   -8.7263   15.8481 O   0  0  0  0  0  0  0  0  0  0  0  0
    9.4085   -7.1876   18.3660 C   0  0  0  0  0  0  0  0  0  0  0  0
   11.1905   -3.9666   16.7156 C   0  0  0  0  0  0  0  0  0  0  0  0
    9.0875   -3.9363   16.0039 C   0  0  0  0  0  0  0  0  0  0  0  0
   11.1218   -3.5247   16.5453 C   0  0  0  0  0  0  0  0  0  0  0  0
    4.3392  -10.3175   18.2769 C   0  0  0  0  0  0  0  0  0  0  0  0
    6.9100   -8.2043   16.3174 C   0  0  0  0  0  0  0  0  0  0  0  0
    4.8152   -9.0171   17.2003 C   0  0  0  0  0  0  0  0  0  0  0  0
   11.1780   -2.8761   18.6041 O   0  0  0  0  0  0  0  0  0  0  0  0
    2.3954  -11.1069   18.7754 N   0  0  0  0  0  0  0  0  0  0  0  0
    8.5816   -6.4267   17.0370 C   0  0  0  0  0  0  0  0  0  0  0  0
    7.0537   -8.5700   17.2513 C   0  0  0  0  0  0  0  0  0  0  0  0
   10.6944   -4.2959   20.6618 C   0  0  0  0  0  0  0  0  0  0  0  0
   10.6201   -5.0881   19.7542 C   0  0  0  0  0  0  0  0  0  0  0  0
    5.6108  -10.0690   17.2207 C   0  0  0  0  0  0  0  0  0  0  0  0
   11.0230   -3.7289   18.2635 C   0  0  0  0  0  0  0  0  0  0  0  0
    2.8297  -11.2009   18.7967 C   0  0  0  0  0  0  0  0  0  0  0  0
   10.6851   -5.0566   19.1676 C   0  0  0  0  0  0  0  0  0  0  0  0
    3.5743   -9.5665   17.3961 C   0  0  0  0  0  0  0  0  0  0  0  0
    5.6231   -8.9901   16.6929 C   0  0  0  0  0  0  0  0  0  0  0  0
    9.9430   -4.7205   17.0197 C   0  0  0  0  0  0  0  0  0  0  0  0
    8.7299   -8.3923   18.0614 C   0  0  0  0  0  0  0  0  0  0  0  0
    8.9242   -6.3543   16.9148 C   0  0  0  0  0  0  0  0  0  0  0  0
    9.7785   -5.5926   17.9505 C   0  0  0  0  0  0  0  0  0  0  0  0
  1 13  1  0
  2 11  4  0
  2 22  4  0
  3  4  1  0
  7 27  1  0
  8 10  4  0
 15 22  1  0
 16 28  1  0
 19 23  1  0
M  END
$$$$

 Created by Python create_sdf_string function

 29 48  0  0  0  0  0  0  0  0999 V2000
    3.7775  -10.4895   19.6962 C   0  0  0  0  0  0  0  0  0  0  0  0
    7.1069   -7.2011   14.2996 N   0  0  0  0  0  0  0  0  0  0  0  0
    3.7410  -10.7111   17.7495 C   0  0  0  0  0  0  0  0  0  0  0  0
    6.7995   -8.1497   16.9239 C   0  0  0  0  0  0  0  0  0  0  0  0
    6.2394   -8.9998   16.2328 N   0  0  0  0  0  0  0  0  0  0  0  0
   11.3768   -3.7977   19.1940 O   0  0  0  0  0  0  0  0  0  0  0  0
    3.2712  -11.8328   19.6196 F   0  0  0  0  0  0  0  0  0  0  0  0
    9.4763   -5.8843   18.1825 O   0  0  0  0  0  0  0  0  0  0  0  0
    6.4547   -8.5236   16.7323 S   0  0  0  0  0  0  0  0  0  0  0  0
   10.3337   -3.5155   21.0218 C   0  0  0  0  0  0  0  0  0  0  0  0
   10.2098   -5.0633   19.5252 C   0  0  0  0  0  0  0  0  0  0  0  0
    5.6108  -10.6770   16.7158 C   0  0  0  0  0  0  0  0  0  0  0  0
   10.2809   -3.2750   17.7914 C   0  0  0  0  0  0  0  0  0  0  0  0
    3.9452  -10.2956   18.6494 Br  0  0  0  0  0  0  0  0  0  0  0  0
    5.6975   -8.7740   16.7116 C   0  0  0  0  0  0  0  0  0  0  0  0
    8.9386   -5.3957   17.2759 N   0  0  0  0  0  0  0  0  0  0  0  0
    9.0449   -7.3740   16.9854 O   0  0  0  0  0  0  0  0  0  0  0  0
    8.7740   -5.4839   16.9992 O   0  0  0  0  0  0  0  0  0  0  0  0
   10.2667   -4.0805   18.6719 F   0  0  0  0  0  0  0  0  0  0  0  0
    5.3372   -7.7230   17.8029 He  0  0  0  0  0  0  0  0  0  0  0  0
    6.1807   -7.2145   16.4558 He  0  0  0  0  0  0  0  0  0  0  0  0
    5.9117   -6.0232   15.0615 He  0  0  0  0  0  0  0  0  0  0  0  0
    8.4093   -9.5752   17.3115 He  0  0  0  0  0  0  0  0  0  0  0  0
    8.2284   -6.6003   17.8256 He  0  0  0  0  0  0  0  0  0  0  0  0
   12.5737   -4.8566   16.5607 He  0  0  0  0  0  0  0  0  0  0  0  0
    9.6307   -4.0653   14.2061 He  0  0  0  0  0  0  0  0  0  0  0  0
   11.3333   -4.2637   17.1508 He  0  0  0  0  0  0  0  0  0  0  0  0
   10.0843   -5.8685   20.0108 He  0  0  0  0  0  0  0  0  0  0  0  0
    4.1998   -8.3534   17.4925 He  0  0  0  0  0  0  0  0  0  0  0  0
  1  5  3  0
  1  8  4  0
  1 12  4  0
  1 15  1  0
  1 16  3  0
  2  6  2  0
  2  7  1  0
  2  8  2  0
  2 11  2  0
  3  8  3  0
  3  9  4  0
  3 12  1  0
  3 13  3  0
  3 17  2  0
  3 19  1  0
  4  6  3  0
  4  7  1  0
  4 10  4  0
  4 15  1  0
  4 17  3  0
  5  6  2  0
  5 13  3  0
  5 17  3  0
  6  7  3  0
  6 10  4  0
  6 14  1  0
  6 18  2  0
  6 19  4  0
  7 11  1  0
  7 14  1  0
  7 18  2  0
  8  9  1  0
  8 12  3  0
  9 10  3  0
  9 18  2  0
  9 19  2  0
 10 15  1  0
 10 18  3  0
 10 19  4  0
 11 12  2  0
 12 14  4  0
 12 19  3  0
 13 14  4  0
 14 15  3  0
 14 18  3  0
 15 17  4  0
 17 18  3  0
 18 19  1  0
M  END
$$$$

 Created by Python create_sdf_string function

 29 19  0  0  0  0  0  0  0  0999 V2000
    5.6325   -7.5536   17.7175 C   0  0  0  0  0  0  0  0  0  0  0  0
    4.1530  -11.0394   18.3538 C   0  0  0  0  0  0  0  0  0  0  0  0
    6.1045   -7.0010   16.3201 C   0  0  0  0  0  0  0  0  0  0  0  0
    7.4659   -7.1659   14.9600 C   0  0  0  0  0  0  0  0  0  0  0  0
    6.3918   -6.5654   15.2998 C   0  0  0  0  0  0  0  0  0  0  0  0
    8.3506   -8.7292   17.1432 C   0  0  0  0  0  0  0  0  0  0  0  0
    8.5012   -6.7263   17.4720 C   0  0  0  0  0  0  0  0  0  0  0  0
   11.9583   -3.9732   16.3803 C   0  0  0  0  0  0  0  0  0  0  0  0
    9.7449   -3.6679   15.6511 O   0  0  0  0  0  0  0  0  0  0  0  0
   10.9182   -3.8519   16.7000 C   0  0  0  0  0  0  0  0  0  0  0  0
    3.3638  -10.2004   18.1107 C   0  0  0  0  0  0  0  0  0  0  0  0
    6.9359   -8.0937   16.4123 C   0  0  0  0  0  0  0  0  0  0  0  0
    6.5826   -8.9014   16.1449 C   0  0  0  0  0  0  0  0  0  0  0  0
   10.9901   -3.4496   19.7265 C   0  0  0  0  0  0  0  0  0  0  0  0
    2.8328  -11.7859   19.1964 O   0  0  0  0  0  0  0  0  0  0  0  0
    9.4624   -5.9300   18.0873 C   0  0  0  0  0  0  0  0  0  0  0  0
    7.0277   -8.6306   16.6400 C   0  0  0  0  0  0  0  0  0  0  0  0
   10.8417   -3.9778   21.0195 C   0  0  0  0  0  0  0  0  0  0  0  0
   10.3909   -5.1668   19.7754 C   0  0  0  0  0  0  0  0  0  0  0  0
    5.3266  -10.6107   17.4038 C   0  0  0  0  0  0  0  0  0  0  0  0
   10.6718   -3.8289   17.7429 C   0  0  0  0  0  0  0  0  0  0  0  0
    3.6615  -10.7377   18.3114 C   0  0  0  0  0  0  0  0  0  0  0  0
   10.3183   -5.4944   19.9474 C   0  0  0  0  0  0  0  0  0  0  0  0
    4.0115   -8.8319   17.2666 C   0  0  0  0  0  0  0  0  0  0  0  0
    5.1594   -8.8358   17.1285 C   0  0  0  0  0  0  0  0  0  0  0  0
    9.2905   -5.4968   17.4222 N   0  0  0  0  0  0  0  0  0  0  0  0
    8.9099   -7.2940   17.0052 C   0  0  0  0  0  0  0  0  0  0  0  0
    8.8111   -5.4400   16.6479 O   0  0  0  0  0  0  0  0  0  0  0  0
   10.7282   -3.9224   18.8490 C   0  0  0  0  0  0  0  0  0  0  0  0
  2 20  4  0
  3  5  1  0
  4  5  1  0
  6 17  1  0
  7 16  1  0
  7 27  1  0
  8 10  1  0
 10 21  1  0
 11 22  4  0
 11 24  4  0
 12 13  1  0
 13 17  1  0
 14 18  4  0
 14 29  4  0
 15 22  1  0
 19 23  4  0
 20 22  4  0
 21 29  4  0
 24 25  4  0
M  END
$$$$

 Created by Python create_sdf_string function

 29 35  0  0  0  0  0  0  0  0999 V2000
    6.7641   -7.1035   16.7986 C   0  0  0  0  0  0  0  0  0  0  0  0
    6.1908   -6.7398   16.7293 O   0  0  0  0  0  0  0  0  0  0  0  0
    7.7567   -9.0300   18.0046 C   0  0  0  0  0  0  0  0  0  0  0  0
   12.0906   -3.5173   15.7580 O   0  0  0  0  0  0  0  0  0  0  0  0
    8.8186   -3.6583   16.4013 O   0  0  0  0  0  0  0  0  0  0  0  0
    2.2860  -10.3816   19.2063 F   0  0  0  0  0  0  0  0  0  0  0  0
    6.9571   -8.3344   15.2772 C   0  0  0  0  0  0  0  0  0  0  0  0
    5.5144   -8.5690   17.0674 C   0  0  0  0  0  0  0  0  0  0  0  0
    2.4883  -10.7987   19.9058 F   0  0  0  0  0  0  0  0  0  0  0  0
   10.0106   -6.5247   18.0589 N   0  0  0  0  0  0  0  0  0  0  0  0
   10.2020   -4.4575   20.7029 F   0  0  0  0  0  0  0  0  0  0  0  0
   11.2711   -3.6042   17.5557 C   0  0  0  0  0  0  0  0  0  0  0  0
    4.3730   -9.6388   19.4348 C   0  0  0  0  0  0  0  0  0  0  0  0
    4.0576   -9.2599   17.5257 C   0  0  0  0  0  0  0  0  0  0  0  0
    5.6340   -7.9930   18.2877 C   0  0  0  0  0  0  0  0  0  0  0  0
   10.2085   -5.6978   16.6539 C   0  0  0  0  0  0  0  0  0  0  0  0
    4.4684  -11.7181   16.2911 He  0  0  0  0  0  0  0  0  0  0  0  0
    7.3088   -7.1474   15.3575 He  0  0  0  0  0  0  0  0  0  0  0  0
    8.6555   -6.6096   15.4993 He  0  0  0  0  0  0  0  0  0  0  0  0
    8.2487   -6.2673   16.9183 He  0  0  0  0  0  0  0  0  0  0  0  0
   11.0677   -3.8337   17.3834 He  0  0  0  0  0  0  0  0  0  0  0  0
   11.0495   -3.6748   20.1412 He  0  0  0  0  0  0  0  0  0  0  0  0
    7.1515   -9.9045   16.1713 He  0  0  0  0  0  0  0  0  0  0  0  0
   11.7844   -4.2037   20.5185 He  0  0  0  0  0  0  0  0  0  0  0  0
    6.3496  -10.0595   16.7159 He  0  0  0  0  0  0  0  0  0  0  0  0
   10.0816   -5.4997   19.4056 He  0  0  0  0  0  0  0  0  0  0  0  0
    9.6585   -4.7350   17.4858 He  0  0  0  0  0  0  0  0  0  0  0  0
    7.8627   -5.3914   16.4650 He  0  0  0  0  0  0  0  0  0  0  0  0
   10.8255   -3.7426   19.1395 He  0  0  0  0  0  0  0  0  0  0  0  0
  1  2  1  0
  1  3  4  0
  1  6  3  0
  1 11  1  0
  1 14  3  0
  1 16  3  0
  2  4  1  0
  2  6  3  0
  2  8  3  0
  2  9  3  0
  2 10  1  0
  3  4  4  0
  3 15  2  0
  4  6  1  0
  4  7  1  0
  4  9  4  0
  5  6  1  0
  5  9  4  0
  5 13  2  0
  5 16  1  0
  6 10  1  0
  6 13  4  0
  6 16  1  0
  7  8  2  0
  7 13  4  0
  8  9  4  0
  9 12  2  0
  9 14  1  0
 10 11  2  0
 10 12  2  0
 10 13  4  0
 11 15  1  0
 11 16  2  0
 13 16  3  0
 14 15  3  0
M  END
$$$$

 Created by Python create_sdf_string function

 29 17  0  0  0  0  0  0  0  0999 V2000
    6.7588   -7.2481   17.0260 C   0  0  0  0  0  0  0  0  0  0  0  0
    4.9482  -10.6500   17.2919 C   0  0  0  0  0  0  0  0  0  0  0  0
    6.1959   -6.7809   16.5210 O   0  0  0  0  0  0  0  0  0  0  0  0
    7.6300   -7.5707   15.1805 C   0  0  0  0  0  0  0  0  0  0  0  0
    8.5250   -7.0527   15.3208 C   0  0  0  0  0  0  0  0  0  0  0  0
    7.7867   -8.3564   17.6199 C   0  0  0  0  0  0  0  0  0  0  0  0
    8.5335   -6.5952   17.0383 C   0  0  0  0  0  0  0  0  0  0  0  0
   11.6077   -3.3773   16.2073 O   0  0  0  0  0  0  0  0  0  0  0  0
    9.3487   -3.8525   15.8947 O   0  0  0  0  0  0  0  0  0  0  0  0
   10.9164   -3.6690   17.4027 C   0  0  0  0  0  0  0  0  0  0  0  0
    2.9258  -10.8415   18.6047 C   0  0  0  0  0  0  0  0  0  0  0  0
    7.0627   -8.6002   15.5368 C   0  0  0  0  0  0  0  0  0  0  0  0
    5.4423   -8.6900   17.2084 C   0  0  0  0  0  0  0  0  0  0  0  0
   11.1807   -3.8327   20.3052 C   0  0  0  0  0  0  0  0  0  0  0  0
    2.6873  -11.2282   19.0150 O   0  0  0  0  0  0  0  0  0  0  0  0
    9.5462   -6.7175   18.1768 C   0  0  0  0  0  0  0  0  0  0  0  0
    7.0873   -9.4088   15.8354 O   0  0  0  0  0  0  0  0  0  0  0  0
   11.3324   -3.9183   20.5914 C   0  0  0  0  0  0  0  0  0  0  0  0
   10.6508   -4.4124   20.9887 C   0  0  0  0  0  0  0  0  0  0  0  0
    5.7032  -10.1168   16.8549 C   0  0  0  0  0  0  0  0  0  0  0  0
   10.9777   -3.7778   17.7903 C   0  0  0  0  0  0  0  0  0  0  0  0
    4.1338  -10.5378   18.1959 C   0  0  0  0  0  0  0  0  0  0  0  0
   10.2611   -5.6444   19.4068 C   0  0  0  0  0  0  0  0  0  0  0  0
    3.7829   -9.4958   17.5273 C   0  0  0  0  0  0  0  0  0  0  0  0
    5.3052   -8.4381   17.8941 C   0  0  0  0  0  0  0  0  0  0  0  0
   10.2095   -4.9932   17.9195 C   0  0  0  0  0  0  0  0  0  0  0  0
    9.4689   -5.1676   16.6920 C   0  0  0  0  0  0  0  0  0  0  0  0
    8.4309   -5.4369   16.2210 C   0  0  0  0  0  0  0  0  0  0  0  0
   11.1108   -3.6236   19.5171 C   0  0  0  0  0  0  0  0  0  0  0  0
  1  3  1  0
  2 20  4  0
  4  5  1  0
  4 12  1  0
  9 27  1  0
 10 21  4  0
 11 15  1  0
 11 22  4  0
 12 17  1  0
 13 25  4  0
 14 18  4  0
 14 19  1  0
 14 29  4  0
 21 26  4  0
 23 26  4  0
 24 25  4  0
 27 28  4  0
M  END
$$$$

 Created by Python create_sdf_string function

 29 43  0  0  0  0  0  0  0  0999 V2000
    6.3227  -10.6992   17.5860 Cl  0  0  0  0  0  0  0  0  0  0  0  0
    8.9584   -6.4403   17.7294 C   0  0  0  0  0  0  0  0  0  0  0  0
   12.6010   -2.6781   16.7271 O   0  0  0  0  0  0  0  0  0  0  0  0
   10.4457   -5.0790   16.9855 P   0  0  0  0  0  0  0  0  0  0  0  0
    6.1645   -8.0528   16.1139 C   0  0  0  0  0  0  0  0  0  0  0  0
   11.5065   -5.2184   20.1662 O   0  0  0  0  0  0  0  0  0  0  0  0
    4.2647  -10.9125   19.2777 O   0  0  0  0  0  0  0  0  0  0  0  0
    6.9666  -10.7041   15.1400 O   0  0  0  0  0  0  0  0  0  0  0  0
   10.4496   -4.5180   20.0590 C   0  0  0  0  0  0  0  0  0  0  0  0
   11.3701   -4.8200   21.6713 P   0  0  0  0  0  0  0  0  0  0  0  0
    4.4532  -11.4479   17.7181 B   0  0  0  0  0  0  0  0  0  0  0  0
    3.2920   -9.3964   18.3735 C   0  0  0  0  0  0  0  0  0  0  0  0
    4.5321   -8.7748   18.1946 C   0  0  0  0  0  0  0  0  0  0  0  0
   10.6527   -4.7331   17.2660 C   0  0  0  0  0  0  0  0  0  0  0  0
    8.0904   -6.1390   17.5073 C   0  0  0  0  0  0  0  0  0  0  0  0
   11.4003   -5.0708   19.3629 O   0  0  0  0  0  0  0  0  0  0  0  0
    5.9783   -7.8958   16.7799 He  0  0  0  0  0  0  0  0  0  0  0  0
    4.5030   -6.2681   17.0218 He  0  0  0  0  0  0  0  0  0  0  0  0
    7.9810   -8.0221   13.4384 He  0  0  0  0  0  0  0  0  0  0  0  0
    8.6949   -8.1601   15.1879 He  0  0  0  0  0  0  0  0  0  0  0  0
    7.9689   -8.6901   17.0872 He  0  0  0  0  0  0  0  0  0  0  0  0
    9.5965   -3.8419   16.2660 He  0  0  0  0  0  0  0  0  0  0  0  0
    3.0223   -9.8537   19.3672 He  0  0  0  0  0  0  0  0  0  0  0  0
    5.5272   -9.2039   16.8964 He  0  0  0  0  0  0  0  0  0  0  0  0
    9.0609   -7.4422   18.6062 He  0  0  0  0  0  0  0  0  0  0  0  0
    4.8512   -9.8684   17.3031 He  0  0  0  0  0  0  0  0  0  0  0  0
   11.7396   -2.3053   18.6948 He  0  0  0  0  0  0  0  0  0  0  0  0
   11.4095   -5.3461   18.8599 He  0  0  0  0  0  0  0  0  0  0  0  0
    8.5992   -6.4323   16.8758 He  0  0  0  0  0  0  0  0  0  0  0  0
  1  2  3  0
  1  3  3  0
  1 16  2  0
  2  6  4  0
  2  8  3  0
  2  9  2  0
  2 11  3  0
  2 14  3  0
  2 16  3  0
  3  4  1  0
  3  9  4  0
  3 11  2  0
  3 12  3  0
  3 14  1  0
  4  5  2  0
  4  9  1  0
  4 10  4  0
  4 11  4  0
  4 13  1  0
  5  8  1  0
  5 13  2  0
  5 14  4  0
  6  7  3  0
  6  9  4  0
  6 10  4  0
  6 11  2  0
  6 14  4  0
  6 15  1  0
  6 16  4  0
  7 11  4  0
  7 12  2  0
  7 13  1  0
  7 15  3  0
  8 11  3  0
  8 13  1  0
  9 10  3  0
 10 14  4  0
 10 16  2  0
 11 16  3  0
 12 14  3  0
 12 16  3  0
 13 14  3  0
 13 15  1  0
M  END
$$$$

 Created by Python create_sdf_string function

 29 17  0  0  0  0  0  0  0  0999 V2000
    6.4312   -7.5805   17.1582 C   0  0  0  0  0  0  0  0  0  0  0  0
    5.7839  -10.2636   17.1648 C   0  0  0  0  0  0  0  0  0  0  0  0
    4.7902   -7.1878   16.9291 O   0  0  0  0  0  0  0  0  0  0  0  0
    8.2452   -7.9211   14.7143 O   0  0  0  0  0  0  0  0  0  0  0  0
    8.3147   -7.8635   15.6037 C   0  0  0  0  0  0  0  0  0  0  0  0
    8.1117   -8.5100   17.1756 C   0  0  0  0  0  0  0  0  0  0  0  0
    9.5249   -6.2904   17.9959 C   0  0  0  0  0  0  0  0  0  0  0  0
   11.6951   -3.1530   16.5939 O   0  0  0  0  0  0  0  0  0  0  0  0
    9.6592   -4.0978   16.3005 C   0  0  0  0  0  0  0  0  0  0  0  0
   10.5625   -4.5329   17.4464 C   0  0  0  0  0  0  0  0  0  0  0  0
    2.6958  -10.6222   18.4081 C   0  0  0  0  0  0  0  0  0  0  0  0
    6.5445   -8.3675   15.7766 C   0  0  0  0  0  0  0  0  0  0  0  0
    6.0324   -8.9814   16.9863 C   0  0  0  0  0  0  0  0  0  0  0  0
   11.1040   -4.8563   20.1425 C   0  0  0  0  0  0  0  0  0  0  0  0
    3.6258  -11.3226   18.6442 O   0  0  0  0  0  0  0  0  0  0  0  0
    9.3336   -7.4033   18.3053 C   0  0  0  0  0  0  0  0  0  0  0  0
    6.7278   -9.9442   15.1083 O   0  0  0  0  0  0  0  0  0  0  0  0
   10.4679   -4.6729   19.8559 C   0  0  0  0  0  0  0  0  0  0  0  0
   11.1150   -4.5068   21.4236 O   0  0  0  0  0  0  0  0  0  0  0  0
    4.5503  -10.0348   17.5837 C   0  0  0  0  0  0  0  0  0  0  0  0
   11.1988   -2.9948   18.6347 C   0  0  0  0  0  0  0  0  0  0  0  0
    4.1806  -11.1755   18.3782 C   0  0  0  0  0  0  0  0  0  0  0  0
   10.7393   -5.3733   18.7460 C   0  0  0  0  0  0  0  0  0  0  0  0
    3.3446   -9.6343   17.5828 C   0  0  0  0  0  0  0  0  0  0  0  0
    4.7635   -8.5527   17.2755 C   0  0  0  0  0  0  0  0  0  0  0  0
   10.5413   -4.0967   17.1533 C   0  0  0  0  0  0  0  0  0  0  0  0
    8.5305   -6.4667   16.7342 C   0  0  0  0  0  0  0  0  0  0  0  0
    7.8843   -6.6025   17.2949 C   0  0  0  0  0  0  0  0  0  0  0  0
   11.0722   -4.8093   19.6073 C   0  0  0  0  0  0  0  0  0  0  0  0
  1 28  1  0
  2 13  4  0
  2 20  4  0
  3 25  1  0
  4  5  1  0
  5  6  1  0
  5 27  1  0
  7 16  1  0
  8 26  1  0
  9 26  1  0
 11 24  4  0
 12 17  1  0
 14 18  4  0
 15 22  4  0
 20 22  4  0
 20 24  4  0
 27 28  1  0
M  END
$$$$

 Created by Python create_sdf_string function

 29 32  0  0  0  0  0  0  0  0999 V2000
    5.3595   -7.4998   16.5656 P   0  0  0  0  0  0  0  0  0  0  0  0
    7.5909   -7.3100   15.3096 F   0  0  0  0  0  0  0  0  0  0  0  0
   11.8049   -2.6603   16.7891 O   0  0  0  0  0  0  0  0  0  0  0  0
   10.2469   -3.8323   15.5773 C   0  0  0  0  0  0  0  0  0  0  0  0
    8.5281   -5.2440   17.2705 C   0  0  0  0  0  0  0  0  0  0  0  0
    5.3297   -9.1299   17.2758 C   0  0  0  0  0  0  0  0  0  0  0  0
   11.2395   -5.0377   20.7635 F   0  0  0  0  0  0  0  0  0  0  0  0
    4.3883  -10.8695   18.5785 O   0  0  0  0  0  0  0  0  0  0  0  0
    8.7114   -7.7919   17.8855 O   0  0  0  0  0  0  0  0  0  0  0  0
    6.5738   -9.2327   13.9030 Cl  0  0  0  0  0  0  0  0  0  0  0  0
   10.7439   -4.3261   19.5189 N   0  0  0  0  0  0  0  0  0  0  0  0
   10.5448   -3.1532   18.7200 O   0  0  0  0  0  0  0  0  0  0  0  0
    4.4616  -11.2867   18.9541 F   0  0  0  0  0  0  0  0  0  0  0  0
   10.9468   -2.3464   17.2757 C   0  0  0  0  0  0  0  0  0  0  0  0
    7.7128   -5.9949   16.7886 C   0  0  0  0  0  0  0  0  0  0  0  0
    7.5580   -5.6844   17.2793 C   0  0  0  0  0  0  0  0  0  0  0  0
   12.7921   -5.9140   18.6503 C   0  0  0  0  0  0  0  0  0  0  0  0
    6.7886   -8.2005   17.4417 He  0  0  0  0  0  0  0  0  0  0  0  0
    6.2749  -10.3499   17.1334 He  0  0  0  0  0  0  0  0  0  0  0  0
    7.8046   -7.2653   13.9466 He  0  0  0  0  0  0  0  0  0  0  0  0
    7.8585   -9.3440   16.8847 He  0  0  0  0  0  0  0  0  0  0  0  0
    8.9530   -4.9751   18.7802 He  0  0  0  0  0  0  0  0  0  0  0  0
    1.9730  -10.5417   17.4734 He  0  0  0  0  0  0  0  0  0  0  0  0
    6.6929   -8.3811   16.5576 He  0  0  0  0  0  0  0  0  0  0  0  0
   10.8535   -4.4696   22.8492 He  0  0  0  0  0  0  0  0  0  0  0  0
    3.9397   -9.8601   17.8708 He  0  0  0  0  0  0  0  0  0  0  0  0
   12.1121   -4.3843   17.8496 He  0  0  0  0  0  0  0  0  0  0  0  0
    2.7902  -10.3022   17.2038 He  0  0  0  0  0  0  0  0  0  0  0  0
    5.0041   -8.2606   17.4096 He  0  0  0  0  0  0  0  0  0  0  0  0
  1  3  2  0
  1 12  3  0
  1 13  1  0
  1 14  2  0
  1 15  3  0
  2 10  2  0
  2 14  3  0
  3  7  2  0
  3 14  1  0
  3 16  4  0
  4  6  3  0
  4 13  1  0
  5  7  2  0
  5 15  1  0
  6  8  3  0
  6  9  1  0
  6 11  1  0
  6 15  3  0
  6 17  1  0
  7 11  4  0
  7 15  2  0
  8  9  4  0
  8 11  3  0
  8 15  2  0
  9 12  1  0
  9 14  4  0
 10 16  2  0
 11 17  3  0
 12 14  4  0
 12 16  1  0
 12 17  1  0
 13 14  3  0
M  END
$$$$

 Created by Python create_sdf_string function

 29 24  0  0  0  0  0  0  0  0999 V2000
    6.9794   -7.3468   17.3677 C   0  0  0  0  0  0  0  0  0  0  0  0
    5.7737  -10.1418   17.3738 C   0  0  0  0  0  0  0  0  0  0  0  0
    5.2411   -7.4102   16.6047 C   0  0  0  0  0  0  0  0  0  0  0  0
    7.9494   -7.4572   14.8322 C   0  0  0  0  0  0  0  0  0  0  0  0
    7.9556   -7.6018   15.3621 C   0  0  0  0  0  0  0  0  0  0  0  0
    8.3490   -8.5605   16.7651 C   0  0  0  0  0  0  0  0  0  0  0  0
    9.5233   -4.8761   18.5993 C   0  0  0  0  0  0  0  0  0  0  0  0
   11.5566   -3.1288   16.5792 O   0  0  0  0  0  0  0  0  0  0  0  0
    9.9712   -3.9387   16.1554 C   0  0  0  0  0  0  0  0  0  0  0  0
    9.0779   -5.4287   17.1963 C   0  0  0  0  0  0  0  0  0  0  0  0
    1.8159  -10.2133   17.7324 N   0  0  0  0  0  0  0  0  0  0  0  0
    6.4654   -8.2838   16.7782 C   0  0  0  0  0  0  0  0  0  0  0  0
    4.9836   -9.3276   17.2225 C   0  0  0  0  0  0  0  0  0  0  0  0
   11.2106   -4.9651   20.3209 C   0  0  0  0  0  0  0  0  0  0  0  0
    4.0678  -10.9512   18.2737 C   0  0  0  0  0  0  0  0  0  0  0  0
    8.9563   -7.7395   17.8822 C   0  0  0  0  0  0  0  0  0  0  0  0
    6.9386   -9.0772   14.9623 F   0  0  0  0  0  0  0  0  0  0  0  0
   10.7011   -4.4193   20.2017 C   0  0  0  0  0  0  0  0  0  0  0  0
   10.7715   -4.3098   21.7682 C   0  0  0  0  0  0  0  0  0  0  0  0
    3.2994   -9.9811   17.6384 C   0  0  0  0  0  0  0  0  0  0  0  0
   10.5511   -3.9599   18.5682 C   0  0  0  0  0  0  0  0  0  0  0  0
    4.0439  -11.0783   18.2760 C   0  0  0  0  0  0  0  0  0  0  0  0
   11.9120   -4.7485   18.0024 C   0  0  0  0  0  0  0  0  0  0  0  0
    2.8555   -9.3937   17.2647 C   0  0  0  0  0  0  0  0  0  0  0  0
    4.3700   -8.3747   16.9524 C   0  0  0  0  0  0  0  0  0  0  0  0
   11.2221   -3.6846   17.4523 C   0  0  0  0  0  0  0  0  0  0  0  0
    8.1569   -6.2444   16.8778 C   0  0  0  0  0  0  0  0  0  0  0  0
    8.2441   -5.8480   17.2621 C   0  0  0  0  0  0  0  0  0  0  0  0
   12.2043   -5.5278   18.9905 C   0  0  0  0  0  0  0  0  0  0  0  0
  1 12  1  0
  1 27  1  0
  2 13  4  0
  2 15  4  0
  2 22  4  0
  3 25  4  0
  4  5  1  0
  6 16  1  0
  7 10  4  0
  7 21  4  0
  8 26  1  0
 10 27  1  0
 11 24  4  0
 13 25  4  0
 14 18  4  0
 15 22  4  0
 18 19  1  0
 20 22  4  0
 20 24  4  0
 21 26  4  0
 23 26  4  0
 23 29  4  0
 24 25  4  0
 27 28  1  0
M  END
$$$$

 Created by Python create_sdf_string function

 29 38  0  0  0  0  0  0  0  0999 V2000
    6.6466   -7.4390   16.9404 Cl  0  0  0  0  0  0  0  0  0  0  0  0
    5.6808  -10.7205   18.3099 F   0  0  0  0  0  0  0  0  0  0  0  0
    8.6346   -7.0621   16.6679 C   0  0  0  0  0  0  0  0  0  0  0  0
   12.0641   -3.3035   15.3228 C   0  0  0  0  0  0  0  0  0  0  0  0
    9.1499   -4.6255   15.9983 C   0  0  0  0  0  0  0  0  0  0  0  0
    6.1402   -8.6313   15.3839 O   0  0  0  0  0  0  0  0  0  0  0  0
   11.1562   -4.9538   20.0991 C   0  0  0  0  0  0  0  0  0  0  0  0
    2.8423  -10.7849   17.4511 C   0  0  0  0  0  0  0  0  0  0  0  0
    7.7073  -10.2309   15.5387 C   0  0  0  0  0  0  0  0  0  0  0  0
   11.9904   -4.0514   21.7928 C   0  0  0  0  0  0  0  0  0  0  0  0
    3.6339   -9.0132   16.4875 C   0  0  0  0  0  0  0  0  0  0  0  0
   11.2273   -4.2957   17.6916 C   0  0  0  0  0  0  0  0  0  0  0  0
   10.9647   -4.6438   18.3862 C   0  0  0  0  0  0  0  0  0  0  0  0
    3.0482   -8.7553   16.5975 C   0  0  0  0  0  0  0  0  0  0  0  0
   12.4879   -4.1896   16.8190 C   0  0  0  0  0  0  0  0  0  0  0  0
    8.6363   -6.5079   15.9539 P   0  0  0  0  0  0  0  0  0  0  0  0
   12.1015   -3.7290   18.9487 C   0  0  0  0  0  0  0  0  0  0  0  0
    5.0404   -8.7192   16.4025 He  0  0  0  0  0  0  0  0  0  0  0  0
    8.6712   -6.8126   15.7022 He  0  0  0  0  0  0  0  0  0  0  0  0
    7.5817   -8.8142   16.7922 He  0  0  0  0  0  0  0  0  0  0  0  0
    9.3151   -4.8774   18.6504 He  0  0  0  0  0  0  0  0  0  0  0  0
    8.6692   -5.9965   17.0960 He  0  0  0  0  0  0  0  0  0  0  0  0
    2.7731  -11.4743   18.2291 He  0  0  0  0  0  0  0  0  0  0  0  0
    5.5117   -8.6317   17.4394 He  0  0  0  0  0  0  0  0  0  0  0  0
    9.1416   -7.5494   18.6873 He  0  0  0  0  0  0  0  0  0  0  0  0
   10.7988   -5.7046   19.9424 He  0  0  0  0  0  0  0  0  0  0  0  0
    2.8125  -10.5966   19.3553 He  0  0  0  0  0  0  0  0  0  0  0  0
    5.6734   -9.1512   17.3188 He  0  0  0  0  0  0  0  0  0  0  0  0
    8.0035   -5.2166   16.9495 He  0  0  0  0  0  0  0  0  0  0  0  0
  1  2  2  0
  1  4  4  0
  1  6  1  0
  1  7  4  0
  1  8  4  0
  1  9  2  0
  1 14  4  0
  2  5  4  0
  2  8  2  0
  2 12  1  0
  2 13  1  0
  2 14  1  0
  2 15  3  0
  3  7  1  0
  3  8  3  0
  3 10  2  0
  3 11  4  0
  3 16  3  0
  3 17  3  0
  4  6  3  0
  4 15  1  0
  5  8  3  0
  6 11  3  0
  6 12  1  0
  7 13  4  0
  7 14  3  0
  8 14  3  0
  8 15  1  0
  8 17  1  0
  9 13  3  0
 10 11  4  0
 11 12  1  0
 11 13  2  0
 11 14  4  0
 12 16  2  0
 14 15  4  0
 14 17  1  0
 15 16  1  0
M  END
$$$$

 Created by Python create_sdf_string function

 29 20  0  0  0  0  0  0  0  0999 V2000
    6.4930   -7.4431   16.9218 C   0  0  0  0  0  0  0  0  0  0  0  0
    4.7438  -10.2599   18.3721 C   0  0  0  0  0  0  0  0  0  0  0  0
    4.6854   -8.7534   16.5729 C   0  0  0  0  0  0  0  0  0  0  0  0
    8.4172   -7.1876   15.4195 C   0  0  0  0  0  0  0  0  0  0  0  0
    8.4956   -7.4825   16.9842 C   0  0  0  0  0  0  0  0  0  0  0  0
    7.6961   -8.6985   16.8635 C   0  0  0  0  0  0  0  0  0  0  0  0
   10.0102   -5.2285   18.6793 C   0  0  0  0  0  0  0  0  0  0  0  0
   11.7195   -3.5181   15.8275 C   0  0  0  0  0  0  0  0  0  0  0  0
    9.9126   -4.2197   16.1328 C   0  0  0  0  0  0  0  0  0  0  0  0
    8.8034   -6.0299   17.4088 C   0  0  0  0  0  0  0  0  0  0  0  0
    2.2648  -10.8845   18.3250 C   0  0  0  0  0  0  0  0  0  0  0  0
    6.3366   -8.2364   15.6486 C   0  0  0  0  0  0  0  0  0  0  0  0
    5.7312   -8.8743   17.6409 C   0  0  0  0  0  0  0  0  0  0  0  0
   11.3279   -4.6020   20.1442 C   0  0  0  0  0  0  0  0  0  0  0  0
    2.8660  -10.6927   18.2236 C   0  0  0  0  0  0  0  0  0  0  0  0
    9.0525   -7.7782   18.2888 C   0  0  0  0  0  0  0  0  0  0  0  0
    7.4310   -9.0996   15.4257 C   0  0  0  0  0  0  0  0  0  0  0  0
   10.6297   -5.0111   20.2349 C   0  0  0  0  0  0  0  0  0  0  0  0
   11.5389   -4.3384   21.6043 C   0  0  0  0  0  0  0  0  0  0  0  0
    3.4834   -9.0104   16.5262 C   0  0  0  0  0  0  0  0  0  0  0  0
   10.7157   -4.3547   17.8305 C   0  0  0  0  0  0  0  0  0  0  0  0
    2.9941  -11.3281   18.8711 N   0  0  0  0  0  0  0  0  0  0  0  0
   11.2826   -4.2651   18.6679 C   0  0  0  0  0  0  0  0  0  0  0  0
    2.8419   -9.3866   16.8524 C   0  0  0  0  0  0  0  0  0  0  0  0
    5.1252   -9.2928   17.5348 C   0  0  0  0  0  0  0  0  0  0  0  0
   11.6915   -3.6089   16.4885 C   0  0  0  0  0  0  0  0  0  0  0  0
    8.2003   -5.5133   16.9216 O   0  0  0  0  0  0  0  0  0  0  0  0
    8.4277   -6.3723   16.0487 C   0  0  0  0  0  0  0  0  0  0  0  0
   11.8276   -3.9152   18.7826 C   0  0  0  0  0  0  0  0  0  0  0  0
  1 12  1  0
  2 25  4  0
  3 20  4  0
  3 25  4  0
  4 28  1  0
  5 16  1  0
  6 17  1  0
  7 10  4  0
  7 18  4  0
  7 21  4  0
  8 26  1  0
 10 27  4  0
 11 15  4  0
 13 25  4  0
 14 18  4  0
 14 23  4  0
 15 22  4  0
 18 19  1  0
 20 24  4  0
 23 29  4  0
M  END
$$$$

 Created by Python create_sdf_string function

 29 50  0  0  0  0  0  0  0  0999 V2000
    7.4999   -7.6540   15.2219 C   0  0  0  0  0  0  0  0  0  0  0  0
    7.4496   -7.8814   17.4869 S   0  0  0  0  0  0  0  0  0  0  0  0
   10.8180   -3.4096   16.0856 N   0  0  0  0  0  0  0  0  0  0  0  0
    9.9777   -4.4659   16.3232 N   0  0  0  0  0  0  0  0  0  0  0  0
    9.3152   -6.6358   16.7738 C   0  0  0  0  0  0  0  0  0  0  0  0
    2.6678  -10.2584   18.5806 C   0  0  0  0  0  0  0  0  0  0  0  0
    6.2416   -8.5811   15.5473 C   0  0  0  0  0  0  0  0  0  0  0  0
    6.9896   -9.1567   18.2516 C   0  0  0  0  0  0  0  0  0  0  0  0
    2.6860  -11.8673   17.8156 C   0  0  0  0  0  0  0  0  0  0  0  0
    8.2845   -7.8108   15.8528 F   0  0  0  0  0  0  0  0  0  0  0  0
   10.7064   -5.1747   20.4445 Br  0  0  0  0  0  0  0  0  0  0  0  0
   12.0208   -4.6903   21.5075 C   0  0  0  0  0  0  0  0  0  0  0  0
    2.8438   -9.4409   15.5430 F   0  0  0  0  0  0  0  0  0  0  0  0
   10.5699   -3.5254   17.7029 C   0  0  0  0  0  0  0  0  0  0  0  0
    3.5944  -11.6076   19.7158 N   0  0  0  0  0  0  0  0  0  0  0  0
   10.5052   -4.7010   18.2350 P   0  0  0  0  0  0  0  0  0  0  0  0
    3.1780   -9.1622   17.6717 C   0  0  0  0  0  0  0  0  0  0  0  0
    4.5128  -10.1928   17.0324 C   0  0  0  0  0  0  0  0  0  0  0  0
   11.8142   -3.4968   17.0030 O   0  0  0  0  0  0  0  0  0  0  0  0
    8.4418   -6.3627   15.6107 C   0  0  0  0  0  0  0  0  0  0  0  0
   10.5729   -4.7338   20.4638 C   0  0  0  0  0  0  0  0  0  0  0  0
    6.7524   -7.6180   17.0982 He  0  0  0  0  0  0  0  0  0  0  0  0
    3.9249  -10.1664   18.2915 He  0  0  0  0  0  0  0  0  0  0  0  0
    4.3663   -9.2658   17.0937 He  0  0  0  0  0  0  0  0  0  0  0  0
    9.3138   -7.7801   16.7880 He  0  0  0  0  0  0  0  0  0  0  0  0
    8.9789   -5.5188   18.6792 He  0  0  0  0  0  0  0  0  0  0  0  0
   10.3226   -4.3089   19.3210 He  0  0  0  0  0  0  0  0  0  0  0  0
    8.4323   -7.1340   19.1305 He  0  0  0  0  0  0  0  0  0  0  0  0
    7.4758   -3.9356   16.5126 He  0  0  0  0  0  0  0  0  0  0  0  0
  1  7  2  0
  1  9  3  0
  1 16  3  0
  1 17  2  0
  1 20  2  0
  2  8  2  0
  2 11  4  0
  3  4  2  0
  3 10  4  0
  3 14  3  0
  3 19  1  0
  4 10  2  0
  4 14  3  0
  4 15  3  0
  5  8  1  0
  5 10  4  0
  5 13  2  0
  6  7  2  0
  6  8  2  0
  6  9  4  0
  6 19  1  0
  7  8  3  0
  7 10  4  0
  7 11  4  0
  7 12  1  0
  7 17  3  0
  7 21  1  0
  8 10  2  0
  8 11  2  0
  9 15  4  0
  9 17  3  0
  9 18  2  0
  9 21  1  0
 10 11  2  0
 10 19  4  0
 11 12  1  0
 11 13  3  0
 11 18  1  0
 11 21  3  0
 12 20  4  0
 13 16  4  0
 13 17  4  0
 13 18  3  0
 13 21  3  0
 14 15  1  0
 14 18  4  0
 14 21  3  0
 17 19  2  0
 19 20  1  0
 20 21  2  0
M  END
$$$$

 Created by Python create_sdf_string function

 29 22  0  0  0  0  0  0  0  0999 V2000
    6.5174   -8.1475   16.5336 C   0  0  0  0  0  0  0  0  0  0  0  0
    4.2020  -10.5442   18.3570 C   0  0  0  0  0  0  0  0  0  0  0  0
    4.5142   -9.4153   17.1557 C   0  0  0  0  0  0  0  0  0  0  0  0
    7.6470   -7.8048   15.4143 C   0  0  0  0  0  0  0  0  0  0  0  0
    8.7664   -8.0008   17.4314 C   0  0  0  0  0  0  0  0  0  0  0  0
    7.3969   -8.0379   17.5982 C   0  0  0  0  0  0  0  0  0  0  0  0
    9.6254   -5.8950   18.3361 C   0  0  0  0  0  0  0  0  0  0  0  0
   10.8532   -3.6332   16.0977 C   0  0  0  0  0  0  0  0  0  0  0  0
    9.7228   -4.2123   16.2915 C   0  0  0  0  0  0  0  0  0  0  0  0
    8.8226   -6.1816   16.9123 C   0  0  0  0  0  0  0  0  0  0  0  0
    2.2011  -10.6036   17.9561 C   0  0  0  0  0  0  0  0  0  0  0  0
    6.0139   -8.5848   15.7057 C   0  0  0  0  0  0  0  0  0  0  0  0
    6.6077   -8.5992   18.1557 C   0  0  0  0  0  0  0  0  0  0  0  0
   10.8534   -4.0565   19.3678 C   0  0  0  0  0  0  0  0  0  0  0  0
    2.4545  -11.1929   18.5954 C   0  0  0  0  0  0  0  0  0  0  0  0
    9.4873   -6.7487   18.9016 C   0  0  0  0  0  0  0  0  0  0  0  0
    7.8547   -8.0586   15.8481 C   0  0  0  0  0  0  0  0  0  0  0  0
   10.6772   -5.0397   20.4968 C   0  0  0  0  0  0  0  0  0  0  0  0
   11.3842   -4.4374   21.6079 C   0  0  0  0  0  0  0  0  0  0  0  0
    3.0537   -9.1092   16.1329 C   0  0  0  0  0  0  0  0  0  0  0  0
   10.8548   -3.7225   17.8530 C   0  0  0  0  0  0  0  0  0  0  0  0
    3.1684  -11.5412   19.1581 N   0  0  0  0  0  0  0  0  0  0  0  0
   10.1648   -4.7451   18.0873 C   0  0  0  0  0  0  0  0  0  0  0  0
    2.6854   -9.6694   16.9949 C   0  0  0  0  0  0  0  0  0  0  0  0
    4.2608   -9.6283   17.4371 C   0  0  0  0  0  0  0  0  0  0  0  0
   11.5224   -3.1512   16.9284 O   0  0  0  0  0  0  0  0  0  0  0  0
    8.3634   -4.6309   15.7876 O   0  0  0  0  0  0  0  0  0  0  0  0
    8.3152   -6.2500   15.9324 C   0  0  0  0  0  0  0  0  0  0  0  0
   10.6091   -4.8320   20.2461 C   0  0  0  0  0  0  0  0  0  0  0  0
  1 12  1  0
  1 17  1  0
  2  3  4  0
  2 22  4  0
  2 25  4  0
  3 25  4  0
  4 17  1  0
  5  6  1  0
  6 13  1  0
  7 10  4  0
  7 16  4  0
  7 23  4  0
  8 26  1  0
 10 28  1  0
 11 15  4  0
 11 24  4  0
 14 18  4  0
 14 21  4  0
 15 22  4  0
 18 19  1  0
 18 29  4  0
 20 24  4  0
M  END
$$$$

 Created by Python create_sdf_string function

 29 42  0  0  0  0  0  0  0  0999 V2000
    7.4934   -7.4519   17.2606 C   0  0  0  0  0  0  0  0  0  0  0  0
    4.1013  -10.1922   18.1670 C   0  0  0  0  0  0  0  0  0  0  0  0
    8.5403   -7.1532   14.7115 S   0  0  0  0  0  0  0  0  0  0  0  0
    7.3080   -8.8916   16.3993 F   0  0  0  0  0  0  0  0  0  0  0  0
    7.3156   -8.0482   17.9997 C   0  0  0  0  0  0  0  0  0  0  0  0
   11.2092   -3.1084   16.3673 C   0  0  0  0  0  0  0  0  0  0  0  0
    8.3602   -3.6364   15.2643 N   0  0  0  0  0  0  0  0  0  0  0  0
    2.7241   -9.9313   17.3238 C   0  0  0  0  0  0  0  0  0  0  0  0
    2.1829  -11.6730   19.2365 C   0  0  0  0  0  0  0  0  0  0  0  0
    7.9355   -8.7125   14.8658 C   0  0  0  0  0  0  0  0  0  0  0  0
   10.5773   -5.1550   21.2171 I   0  0  0  0  0  0  0  0  0  0  0  0
   10.8467   -4.9980   21.4916 N   0  0  0  0  0  0  0  0  0  0  0  0
    3.0759  -10.1550   15.3096 C   0  0  0  0  0  0  0  0  0  0  0  0
   10.3633   -3.8053   16.7554 O   0  0  0  0  0  0  0  0  0  0  0  0
    1.6513   -9.9497   17.1936 F   0  0  0  0  0  0  0  0  0  0  0  0
    4.4511   -9.0433   16.2104 C   0  0  0  0  0  0  0  0  0  0  0  0
   12.1150   -2.2982   16.5782 O   0  0  0  0  0  0  0  0  0  0  0  0
    9.1048   -5.7839   16.5846 C   0  0  0  0  0  0  0  0  0  0  0  0
    9.8346   -4.6450   19.3270 Se  0  0  0  0  0  0  0  0  0  0  0  0
    3.3111  -10.8555   18.2144 He  0  0  0  0  0  0  0  0  0  0  0  0
    9.6743   -6.8744   19.2944 He  0  0  0  0  0  0  0  0  0  0  0  0
    8.4493   -6.5161   17.9566 He  0  0  0  0  0  0  0  0  0  0  0  0
    5.7936   -8.6497   15.3581 He  0  0  0  0  0  0  0  0  0  0  0  0
    6.9409   -8.9050   17.7592 He  0  0  0  0  0  0  0  0  0  0  0  0
   11.8912   -4.1134   19.5196 He  0  0  0  0  0  0  0  0  0  0  0  0
    8.9265   -7.0644   18.6750 He  0  0  0  0  0  0  0  0  0  0  0  0
    2.1175  -11.7341   18.5599 He  0  0  0  0  0  0  0  0  0  0  0  0
   11.2863   -5.1338   18.5832 He  0  0  0  0  0  0  0  0  0  0  0  0
    8.0115   -4.5106   15.4196 He  0  0  0  0  0  0  0  0  0  0  0  0
  1  2  4  0
  1  5  1  0
  1 10  1  0
  1 14  1  0
  1 17  4  0
  2  4  2  0
  2  7  3  0
  2 16  4  0
  2 19  3  0
  3 15  4  0
  3 18  3  0
  4  7  2  0
  4 10  3  0
  4 14  1  0
  4 18  3  0
  5 10  1  0
  5 14  2  0
  6 12  1  0
  7 14  1  0
  8 10  3  0
  8 12  1  0
  8 15  3  0
  8 17  3  0
  8 19  3  0
  9 11  4  0
  9 12  3  0
  9 14  3  0
 10 11  1  0
 10 12  1  0
 10 15  1  0
 10 16  1  0
 11 14  4  0
 11 15  4  0
 11 17  2  0
 11 19  3  0
 12 15  3  0
 12 17  2  0
 12 19  2  0
 13 19  1  0
 14 15  4  0
 14 18  4  0
 15 18  2  0
M  END
$$$$

 Created by Python create_sdf_string function

 29 22  0  0  0  0  0  0  0  0999 V2000
    7.9394   -7.5632   17.3345 C   0  0  0  0  0  0  0  0  0  0  0  0
    3.6079  -10.6784   18.3762 C   0  0  0  0  0  0  0  0  0  0  0  0
    4.1878   -9.9815   17.8018 C   0  0  0  0  0  0  0  0  0  0  0  0
    8.3367   -7.5405   15.1555 C   0  0  0  0  0  0  0  0  0  0  0  0
    7.1851   -8.5830   16.2924 C   0  0  0  0  0  0  0  0  0  0  0  0
    6.7963   -8.2277   17.4770 C   0  0  0  0  0  0  0  0  0  0  0  0
    9.2371   -6.9660   18.6135 C   0  0  0  0  0  0  0  0  0  0  0  0
   11.4194   -3.4626   16.6519 C   0  0  0  0  0  0  0  0  0  0  0  0
    9.2089   -3.8244   15.7144 C   0  0  0  0  0  0  0  0  0  0  0  0
    9.1376   -6.1548   17.9781 C   0  0  0  0  0  0  0  0  0  0  0  0
    2.2601  -10.1665   17.4053 C   0  0  0  0  0  0  0  0  0  0  0  0
    5.3099   -8.8526   15.7861 C   0  0  0  0  0  0  0  0  0  0  0  0
    6.1949   -8.7485   17.9929 C   0  0  0  0  0  0  0  0  0  0  0  0
   11.2879   -4.0666   19.5366 C   0  0  0  0  0  0  0  0  0  0  0  0
    2.2633  -11.4288   19.0184 C   0  0  0  0  0  0  0  0  0  0  0  0
    9.0374   -7.2475   18.3291 C   0  0  0  0  0  0  0  0  0  0  0  0
    7.6072   -8.3916   15.4670 C   0  0  0  0  0  0  0  0  0  0  0  0
   10.6903   -5.0043   20.9009 C   0  0  0  0  0  0  0  0  0  0  0  0
   10.6958   -4.7902   21.2080 C   0  0  0  0  0  0  0  0  0  0  0  0
    2.9846   -9.2437   16.0550 C   0  0  0  0  0  0  0  0  0  0  0  0
   10.1562   -4.2000   16.7558 C   0  0  0  0  0  0  0  0  0  0  0  0
    1.9323  -11.3767   18.9392 N   0  0  0  0  0  0  0  0  0  0  0  0
   11.1253   -4.3524   18.4581 C   0  0  0  0  0  0  0  0  0  0  0  0
    1.7751   -9.9713   17.0151 C   0  0  0  0  0  0  0  0  0  0  0  0
    4.3710   -9.3283   16.6548 C   0  0  0  0  0  0  0  0  0  0  0  0
   11.8831   -2.9077   16.6628 O   0  0  0  0  0  0  0  0  0  0  0  0
    8.1420   -5.0930   15.7150 O   0  0  0  0  0  0  0  0  0  0  0  0
    9.1016   -5.4321   16.7620 C   0  0  0  0  0  0  0  0  0  0  0  0
   10.1972   -5.0333   19.1094 C   0  0  0  0  0  0  0  0  0  0  0  0
  1  6  1  0
  2  3  4  0
  3 25  4  0
  4 17  1  0
  5 17  1  0
  6 13  4  0
  7 10  4  0
  7 16  4  0
  8 21  4  0
  8 26  4  0
  9 21  1  0
 10 28  4  0
 10 29  4  0
 11 24  4  0
 12 25  4  0
 14 23  4  0
 15 22  4  0
 18 19  1  0
 20 24  4  0
 20 25  4  0
 21 28  4  0
 27 28  2  0
M  END
$$$$

 Created by Python create_sdf_string function

 29 62  0  0  0  0  0  0  0  0999 V2000
    8.5436   -7.4101   17.1375 C   0  0  0  0  0  0  0  0  0  0  0  0
    3.5408  -10.4355   18.3934 C   0  0  0  0  0  0  0  0  0  0  0  0
    4.4116   -9.3489   17.1921 S   0  0  0  0  0  0  0  0  0  0  0  0
    7.9819   -7.0748   15.1960 C   0  0  0  0  0  0  0  0  0  0  0  0
    8.2667   -8.4107   16.0513 B   0  0  0  0  0  0  0  0  0  0  0  0
    7.0843   -8.9509   17.1486 F   0  0  0  0  0  0  0  0  0  0  0  0
   11.4752   -3.7025   16.7955 F   0  0  0  0  0  0  0  0  0  0  0  0
    9.0229   -6.3840   18.2850 C   0  0  0  0  0  0  0  0  0  0  0  0
    2.8916  -10.3780   18.2077 C   0  0  0  0  0  0  0  0  0  0  0  0
    5.3149   -8.0480   18.5675 C   0  0  0  0  0  0  0  0  0  0  0  0
    1.8664  -11.2300   18.3841 C   0  0  0  0  0  0  0  0  0  0  0  0
    8.9125   -7.1046   17.5379 C   0  0  0  0  0  0  0  0  0  0  0  0
   11.9104   -4.5049   21.2220 N   0  0  0  0  0  0  0  0  0  0  0  0
    2.8442   -8.4930   16.2963 F   0  0  0  0  0  0  0  0  0  0  0  0
    9.8900   -4.1444   16.3913 B   0  0  0  0  0  0  0  0  0  0  0  0
    2.1610  -12.6141   17.4462 C   0  0  0  0  0  0  0  0  0  0  0  0
    1.5469   -9.7152   18.1417 C   0  0  0  0  0  0  0  0  0  0  0  0
    3.6605   -8.9503   17.0102 C   0  0  0  0  0  0  0  0  0  0  0  0
   11.8561   -1.7097   15.8112 O   0  0  0  0  0  0  0  0  0  0  0  0
    8.2425   -5.3494   15.3867 O   0  0  0  0  0  0  0  0  0  0  0  0
    8.5985   -6.4545   17.9718 C   0  0  0  0  0  0  0  0  0  0  0  0
   10.5621   -4.4641   19.3784 Cl  0  0  0  0  0  0  0  0  0  0  0  0
    9.9319   -6.5062   18.5321 He  0  0  0  0  0  0  0  0  0  0  0  0
    9.4507   -4.5085   17.1893 He  0  0  0  0  0  0  0  0  0  0  0  0
    5.8215   -8.8822   15.1899 He  0  0  0  0  0  0  0  0  0  0  0  0
   11.0859   -4.9773   18.7980 He  0  0  0  0  0  0  0  0  0  0  0  0
    8.2421   -8.3262   14.1036 He  0  0  0  0  0  0  0  0  0  0  0  0
   10.2591   -5.7461   21.1362 He  0  0  0  0  0  0  0  0  0  0  0  0
   10.1177   -3.7641   18.7730 He  0  0  0  0  0  0  0  0  0  0  0  0
  1  6  1  0
  1  9  4  0
  1 14  4  0
  1 18  3  0
  1 19  2  0
  1 20  1  0
  1 22  3  0
  2  3  4  0
  2  7  1  0
  2 10  3  0
  2 13  2  0
  2 17  2  0
  2 20  4  0
  2 22  4  0
  3  4  2  0
  3  6  1  0
  3  7  2  0
  3 13  3  0
  3 15  4  0
  3 18  4  0
  3 19  1  0
  4  6  1  0
  4 11  1  0
  4 13  1  0
  5  7  4  0
  5 15  1  0
  5 20  2  0
  6 10  4  0
  6 15  4  0
  6 21  1  0
  6 22  4  0
  7 12  4  0
  7 16  4  0
  7 18  2  0
  8 13  1  0
  8 16  2  0
  8 17  4  0
  8 18  1  0
  8 21  3  0
  8 22  1  0
  9 11  4  0
  9 12  3  0
  9 15  2  0
  9 22  3  0
 10 16  4  0
 10 22  2  0
 11 16  4  0
 11 19  4  0
 12 15  1  0
 12 22  2  0
 13 14  1  0
 13 18  3  0
 13 21  2  0
 14 16  4  0
 14 17  4  0
 14 18  4  0
 15 18  2  0
 15 20  3  0
 15 22  3  0
 17 19  1  0
 20 21  2  0
 20 22  4  0
M  END
$$$$

 Created by Python create_sdf_string function

 29 20  0  0  0  0  0  0  0  0999 V2000
    7.8927   -7.6395   17.1526 C   0  0  0  0  0  0  0  0  0  0  0  0
    4.0388  -10.4545   18.1929 C   0  0  0  0  0  0  0  0  0  0  0  0
    4.5273   -9.4211   17.3551 C   0  0  0  0  0  0  0  0  0  0  0  0
    7.7048   -7.3479   15.4770 C   0  0  0  0  0  0  0  0  0  0  0  0
    8.1419   -8.4247   15.7937 C   0  0  0  0  0  0  0  0  0  0  0  0
    6.4088   -8.4047   17.1370 C   0  0  0  0  0  0  0  0  0  0  0  0
    9.8398   -6.4476   18.9399 C   0  0  0  0  0  0  0  0  0  0  0  0
   11.3706   -3.5062   16.5708 C   0  0  0  0  0  0  0  0  0  0  0  0
    9.6118   -4.5833   16.8980 C   0  0  0  0  0  0  0  0  0  0  0  0
    9.6372   -5.7323   18.3765 C   0  0  0  0  0  0  0  0  0  0  0  0
    2.2260  -10.7316   18.1833 C   0  0  0  0  0  0  0  0  0  0  0  0
    5.9985   -8.9188   15.7906 C   0  0  0  0  0  0  0  0  0  0  0  0
    6.0213   -8.2771   18.2272 C   0  0  0  0  0  0  0  0  0  0  0  0
   11.0059   -4.2176   18.9829 C   0  0  0  0  0  0  0  0  0  0  0  0
    2.0668  -11.3924   18.6425 C   0  0  0  0  0  0  0  0  0  0  0  0
    8.8026   -7.1879   17.4783 C   0  0  0  0  0  0  0  0  0  0  0  0
    7.9587   -8.4445   14.8344 C   0  0  0  0  0  0  0  0  0  0  0  0
   10.9267   -5.2376   20.8760 C   0  0  0  0  0  0  0  0  0  0  0  0
   11.3618   -4.4511   21.1970 N   0  0  0  0  0  0  0  0  0  0  0  0
    2.4980   -9.2282   16.7286 C   0  0  0  0  0  0  0  0  0  0  0  0
   10.0486   -4.0384   16.4801 C   0  0  0  0  0  0  0  0  0  0  0  0
    2.3290  -11.5585   18.9810 C   0  0  0  0  0  0  0  0  0  0  0  0
   10.6211   -4.1233   18.5022 C   0  0  0  0  0  0  0  0  0  0  0  0
    1.9079   -9.9066   17.3725 C   0  0  0  0  0  0  0  0  0  0  0  0
    3.7652   -8.9953   16.6729 C   0  0  0  0  0  0  0  0  0  0  0  0
   11.9787   -2.7022   16.4115 O   0  0  0  0  0  0  0  0  0  0  0  0
    7.9631   -5.0647   15.8177 O   0  0  0  0  0  0  0  0  0  0  0  0
    8.5117   -6.4677   17.5127 C   0  0  0  0  0  0  0  0  0  0  0  0
   10.4282   -4.4090   19.7354 C   0  0  0  0  0  0  0  0  0  0  0  0
  1  6  1  0
  1 28  1  0
  2  3  4  0
  3 25  4  0
  4 17  1  0
  5 17  1  0
  6 13  4  0
  7 10  4  0
  8 21  1  0
  8 26  1  0
  9 10  1  0
  9 21  1  0
  9 23  1  0
 11 15  4  0
 11 24  4  0
 14 23  4  0
 15 22  4  0
 18 19  1  0
 20 24  4  0
 20 25  4  0
M  END
$$$$

 Created by Python create_sdf_string function

 29 66  0  0  0  0  0  0  0  0999 V2000
    8.2836   -7.4939   16.8449 Br  0  0  0  0  0  0  0  0  0  0  0  0
    4.2394  -11.3316   17.8096 C   0  0  0  0  0  0  0  0  0  0  0  0
    5.2177   -8.6541   16.6316 C   0  0  0  0  0  0  0  0  0  0  0  0
    7.0824   -7.5294   15.5084 N   0  0  0  0  0  0  0  0  0  0  0  0
    8.2635   -8.2985   15.8361 C   0  0  0  0  0  0  0  0  0  0  0  0
    6.0165   -8.2483   16.3985 C   0  0  0  0  0  0  0  0  0  0  0  0
    9.4925   -7.2393   19.9592 B   0  0  0  0  0  0  0  0  0  0  0  0
   10.9560   -4.4664   17.4794 C   0  0  0  0  0  0  0  0  0  0  0  0
    9.4034   -6.0911   17.9877 P   0  0  0  0  0  0  0  0  0  0  0  0
    6.0683  -10.0409   14.4309 C   0  0  0  0  0  0  0  0  0  0  0  0
    6.8038   -8.4901   17.9311 C   0  0  0  0  0  0  0  0  0  0  0  0
    9.8243   -4.2523   18.8241 C   0  0  0  0  0  0  0  0  0  0  0  0
    2.6939  -10.6952   19.8509 N   0  0  0  0  0  0  0  0  0  0  0  0
    9.6884   -6.5496   17.3795 C   0  0  0  0  0  0  0  0  0  0  0  0
    8.5360   -8.7259   15.0657 C   0  0  0  0  0  0  0  0  0  0  0  0
   10.3269   -6.1037   20.6817 C   0  0  0  0  0  0  0  0  0  0  0  0
   10.9596   -4.1714   20.8184 P   0  0  0  0  0  0  0  0  0  0  0  0
    2.1019   -8.3550   17.4895 N   0  0  0  0  0  0  0  0  0  0  0  0
    9.8271   -4.3324   16.2661 C   0  0  0  0  0  0  0  0  0  0  0  0
   11.1913   -3.4782   18.2360 C   0  0  0  0  0  0  0  0  0  0  0  0
    1.4076   -8.8127   18.2381 F   0  0  0  0  0  0  0  0  0  0  0  0
    3.6174   -8.9525   17.9787 N   0  0  0  0  0  0  0  0  0  0  0  0
   11.1152   -1.8523   16.8666 F   0  0  0  0  0  0  0  0  0  0  0  0
    9.6479   -3.8275   18.0031 N   0  0  0  0  0  0  0  0  0  0  0  0
   10.8486   -2.6556   17.8609 He  0  0  0  0  0  0  0  0  0  0  0  0
    2.3984  -11.5560   17.3151 He  0  0  0  0  0  0  0  0  0  0  0  0
    1.7312  -12.4815   18.7728 He  0  0  0  0  0  0  0  0  0  0  0  0
    9.7233   -6.2240   17.8797 He  0  0  0  0  0  0  0  0  0  0  0  0
   10.1692   -4.3903   19.1688 He  0  0  0  0  0  0  0  0  0  0  0  0
  1  2  4  0
  1  3  2  0
  1 11  2  0
  1 15  1  0
  1 18  4  0
  2  3  4  0
  2 12  4  0
  2 14  2  0
  2 18  1  0
  2 19  3  0
  2 20  2  0
  3  4  3  0
  3  7  2  0
  3  9  1  0
  3 17  4  0
  4  6  3  0
  4  7  1  0
  4  9  3  0
  4 10  3  0
  4 15  1  0
  4 16  1  0
  4 17  1  0
  4 22  3  0
  4 24  3  0
  5  8  4  0
  5 10  2  0
  5 12  4  0
  5 14  1  0
  6  7  1  0
  6  9  3  0
  6 11  4  0
  6 15  3  0
  6 21  3  0
  7  9  1  0
  7 12  3  0
  7 16  1  0
  7 24  1  0
  8  9  2  0
  8 10  1  0
  8 15  3  0
  8 16  3  0
  8 19  1  0
  9 20  1  0
  9 23  3  0
 10 15  1  0
 11 12  4  0
 11 13  3  0
 11 23  3  0
 11 24  2  0
 12 20  4  0
 14 15  2  0
 14 16  1  0
 14 17  4  0
 14 23  4  0
 15 17  4  0
 15 18  2  0
 16 17  1  0
 16 21  1  0
 17 20  1  0
 17 22  4  0
 17 23  3  0
 18 21  2  0
 18 22  4  0
 20 21  4  0
 21 22  3  0
 22 23  1  0
M  END
$$$$

 Created by Python create_sdf_string function

 29 26  0  0  0  0  0  0  0  0999 V2000
    8.0049   -7.5575   17.3829 C   0  0  0  0  0  0  0  0  0  0  0  0
    3.8182  -10.9436   18.4082 C   0  0  0  0  0  0  0  0  0  0  0  0
    4.7852   -9.0309   16.9889 C   0  0  0  0  0  0  0  0  0  0  0  0
    6.6821   -8.0823   15.5317 C   0  0  0  0  0  0  0  0  0  0  0  0
    8.4151   -8.1861   15.6443 C   0  0  0  0  0  0  0  0  0  0  0  0
    5.9933   -8.4425   16.7028 C   0  0  0  0  0  0  0  0  0  0  0  0
    9.9370   -7.1803   19.2865 C   0  0  0  0  0  0  0  0  0  0  0  0
   11.2681   -2.7519   17.6065 C   0  0  0  0  0  0  0  0  0  0  0  0
   10.5593   -3.9739   17.1359 C   0  0  0  0  0  0  0  0  0  0  0  0
    9.5347   -5.8726   18.3516 C   0  0  0  0  0  0  0  0  0  0  0  0
    2.5094  -10.7597   18.2194 C   0  0  0  0  0  0  0  0  0  0  0  0
    6.2622   -9.5136   14.9876 C   0  0  0  0  0  0  0  0  0  0  0  0
    6.4322   -8.1156   17.7332 C   0  0  0  0  0  0  0  0  0  0  0  0
   10.4784   -4.0209   19.1714 C   0  0  0  0  0  0  0  0  0  0  0  0
    2.7342  -11.5329   18.9712 N   0  0  0  0  0  0  0  0  0  0  0  0
    9.0424   -6.9911   17.0914 C   0  0  0  0  0  0  0  0  0  0  0  0
    7.8325   -8.3568   15.2425 C   0  0  0  0  0  0  0  0  0  0  0  0
   10.7006   -5.5137   20.6736 C   0  0  0  0  0  0  0  0  0  0  0  0
   11.1429   -4.2915   21.1865 C   0  0  0  0  0  0  0  0  0  0  0  0
    2.4094   -8.9676   17.0823 N   0  0  0  0  0  0  0  0  0  0  0  0
   10.0822   -4.0596   16.0122 C   0  0  0  0  0  0  0  0  0  0  0  0
    1.8148  -11.9978   19.2269 C   0  0  0  0  0  0  0  0  0  0  0  0
   11.0204   -3.0417   18.8514 C   0  0  0  0  0  0  0  0  0  0  0  0
    1.7633   -9.8266   17.4808 C   0  0  0  0  0  0  0  0  0  0  0  0
    3.7580   -9.0278   17.1408 N   0  0  0  0  0  0  0  0  0  0  0  0
   11.7312   -2.2392   17.0951 O   0  0  0  0  0  0  0  0  0  0  0  0
    9.7292   -4.6258   17.5351 N   0  0  0  0  0  0  0  0  0  0  0  0
    9.5207   -6.8338   17.9122 C   0  0  0  0  0  0  0  0  0  0  0  0
   10.1545   -4.6760   19.5159 C   0  0  0  0  0  0  0  0  0  0  0  0
  1 13  4  0
  1 16  1  0
  2 11  4  0
  2 15  4  0
  3  6  1  0
  3 25  1  0
  4  6  1  0
  4 17  1  0
  5 16  1  0
  5 17  1  0
  6 13  4  0
  7 10  1  0
  7 28  1  0
  8 23  4  0
  8 26  2  0
  9 21  1  0
  9 27  4  0
 10 29  4  0
 11 24  4  0
 14 23  4  0
 14 29  4  0
 15 22  4  0
 16 28  1  0
 18 19  1  0
 20 24  4  0
 20 25  4  0
M  END
$$$$

 Created by Python create_sdf_string function

 29 65  0  0  0  0  0  0  0  0999 V2000
    7.9131   -8.5573   17.1684 C   0  0  0  0  0  0  0  0  0  0  0  0
    4.5055  -10.8086   19.0433 C   0  0  0  0  0  0  0  0  0  0  0  0
    4.2461   -8.6450   14.8474 F   0  0  0  0  0  0  0  0  0  0  0  0
    6.6470   -8.3657   16.8914 Cl  0  0  0  0  0  0  0  0  0  0  0  0
    9.0096   -7.7921   19.9828 C   0  0  0  0  0  0  0  0  0  0  0  0
   10.3269   -2.9967   17.9893 C   0  0  0  0  0  0  0  0  0  0  0  0
    9.4930   -3.4744   16.0632 C   0  0  0  0  0  0  0  0  0  0  0  0
    9.9628   -6.9618   17.7313 C   0  0  0  0  0  0  0  0  0  0  0  0
    1.4959  -10.6140   18.4486 C   0  0  0  0  0  0  0  0  0  0  0  0
    6.4197   -7.6276   15.9310 C   0  0  0  0  0  0  0  0  0  0  0  0
    7.4532   -7.6310   17.4297 O   0  0  0  0  0  0  0  0  0  0  0  0
    8.5242   -7.0604   16.4576 C   0  0  0  0  0  0  0  0  0  0  0  0
    8.7462   -8.9726   15.0086 F   0  0  0  0  0  0  0  0  0  0  0  0
    2.7958   -9.0112   17.6514 N   0  0  0  0  0  0  0  0  0  0  0  0
    1.8595  -11.8609   19.2532 O   0  0  0  0  0  0  0  0  0  0  0  0
   11.0994   -2.9372   17.9359 C   0  0  0  0  0  0  0  0  0  0  0  0
    0.8560   -9.1505   17.6678 Cl  0  0  0  0  0  0  0  0  0  0  0  0
    3.5101   -9.2465   17.6653 N   0  0  0  0  0  0  0  0  0  0  0  0
    9.4303   -4.2558   16.8594 N   0  0  0  0  0  0  0  0  0  0  0  0
    9.5206   -7.2483   18.0474 C   0  0  0  0  0  0  0  0  0  0  0  0
    6.5722   -8.6666   15.1477 He  0  0  0  0  0  0  0  0  0  0  0  0
    8.9802   -8.1067   14.9823 He  0  0  0  0  0  0  0  0  0  0  0  0
   10.8079   -5.5535   19.4979 He  0  0  0  0  0  0  0  0  0  0  0  0
    2.3300  -10.0159   19.4547 He  0  0  0  0  0  0  0  0  0  0  0  0
   10.2663   -5.8165   21.4974 He  0  0  0  0  0  0  0  0  0  0  0  0
   10.8855   -4.3376   21.6282 He  0  0  0  0  0  0  0  0  0  0  0  0
    9.5288   -4.1800   16.6208 He  0  0  0  0  0  0  0  0  0  0  0  0
   11.9560   -2.3115   16.0429 He  0  0  0  0  0  0  0  0  0  0  0  0
   10.4537   -4.3853   19.0868 He  0  0  0  0  0  0  0  0  0  0  0  0
  1  3  4  0
  1  4  4  0
  1 10  3  0
  1 12  1  0
  1 13  2  0
  1 14  4  0
  2  7  2  0
  2  8  1  0
  2  9  4  0
  2 12  3  0
  2 17  4  0
  3  4  1  0
  3  8  3  0
  3 12  3  0
  3 16  3  0
  3 18  1  0
  3 20  1  0
  4  8  1  0
  4  9  1  0
  4 10  2  0
  4 11  4  0
  4 13  3  0
  4 20  1  0
  5  9  2  0
  5 10  1  0
  5 13  2  0
  5 15  4  0
  5 18  3  0
  5 19  4  0
  5 20  1  0
  6 11  1  0
  6 12  4  0
  6 16  4  0
  6 19  4  0
  7 10  1  0
  7 11  4  0
  7 12  2  0
  7 16  3  0
  7 18  2  0
  8  9  4  0
  8 15  3  0
  8 18  4  0
  8 19  3  0
  9 10  2  0
  9 17  4  0
  9 18  3  0
  9 19  3  0
 10 12  2  0
 10 14  1  0
 10 15  4  0
 10 19  3  0
 11 13  1  0
 11 16  4  0
 11 20  3  0
 12 20  1  0
 13 16  1  0
 13 19  3  0
 14 17  4  0
 14 18  1  0
 14 19  1  0
 15 16  2  0
 15 17  1  0
 16 19  2  0
 17 18  1  0
 17 19  1  0
M  END
$$$$

 Created by Python create_sdf_string function

 29 26  0  0  0  0  0  0  0  0999 V2000
    7.8404   -7.9775   17.1839 C   0  0  0  0  0  0  0  0  0  0  0  0
    3.7853  -10.4923   18.3431 C   0  0  0  0  0  0  0  0  0  0  0  0
    4.2801   -8.7862   16.1208 C   0  0  0  0  0  0  0  0  0  0  0  0
    6.6038   -8.9858   15.4329 C   0  0  0  0  0  0  0  0  0  0  0  0
    8.5965   -8.0156   15.0325 C   0  0  0  0  0  0  0  0  0  0  0  0
    5.9284   -8.4433   16.4662 C   0  0  0  0  0  0  0  0  0  0  0  0
    9.6514   -7.5975   18.9957 C   0  0  0  0  0  0  0  0  0  0  0  0
   10.9702   -3.3671   17.5242 C   0  0  0  0  0  0  0  0  0  0  0  0
    9.2809   -3.8720   15.8364 C   0  0  0  0  0  0  0  0  0  0  0  0
    9.7021   -6.1005   17.9764 C   0  0  0  0  0  0  0  0  0  0  0  0
    1.3439  -10.6026   18.1230 C   0  0  0  0  0  0  0  0  0  0  0  0
    6.2732   -7.4534   16.4189 C   0  0  0  0  0  0  0  0  0  0  0  0
    7.0829   -7.9717   17.8739 O   0  0  0  0  0  0  0  0  0  0  0  0
   10.6185   -4.6907   19.2021 C   0  0  0  0  0  0  0  0  0  0  0  0
    2.4825  -11.1120   18.7962 C   0  0  0  0  0  0  0  0  0  0  0  0
    8.5225   -7.0937   16.6673 C   0  0  0  0  0  0  0  0  0  0  0  0
    7.9499   -8.7558   15.0157 C   0  0  0  0  0  0  0  0  0  0  0  0
   10.6896   -5.5555   20.9164 O   0  0  0  0  0  0  0  0  0  0  0  0
   10.8717   -4.4251   21.2789 C   0  0  0  0  0  0  0  0  0  0  0  0
    2.6730   -9.5209   17.1207 C   0  0  0  0  0  0  0  0  0  0  0  0
    9.5474   -4.5895   16.5120 C   0  0  0  0  0  0  0  0  0  0  0  0
    2.0689  -11.7548   19.5477 O   0  0  0  0  0  0  0  0  0  0  0  0
   11.0946   -3.4582   18.4390 C   0  0  0  0  0  0  0  0  0  0  0  0
    1.5587   -9.7320   17.2032 C   0  0  0  0  0  0  0  0  0  0  0  0
    3.6693   -9.3163   17.0692 C   0  0  0  0  0  0  0  0  0  0  0  0
   11.6518   -2.7576   16.6720 O   0  0  0  0  0  0  0  0  0  0  0  0
    9.9162   -4.4762   16.9484 C   0  0  0  0  0  0  0  0  0  0  0  0
    9.2851   -6.9706   18.0559 C   0  0  0  0  0  0  0  0  0  0  0  0
   10.4806   -4.9110   19.0439 C   0  0  0  0  0  0  0  0  0  0  0  0
  1 13  1  0
  1 16  1  0
  2 15  4  0
  2 25  4  0
  3  6  1  0
  3 25  1  0
  4  6  1  0
  4 17  1  0
  5 16  1  0
  5 17  1  0
  6 12  1  0
  6 13  1  0
  7 28  1  0
  8 23  4  0
  8 26  2  0
  8 27  4  0
  9 21  1  0
 11 24  4  0
 14 23  4  0
 14 29  4  0
 15 22  4  0
 16 28  1  0
 18 19  1  0
 20 24  4  0
 20 25  1  0
 21 27  4  0
M  END
$$$$

 Created by Python create_sdf_string function

 29 60  0  0  0  0  0  0  0  0999 V2000
    8.3956   -8.2883   18.8738 C   0  0  0  0  0  0  0  0  0  0  0  0
    3.4460   -9.8654   18.2618 C   0  0  0  0  0  0  0  0  0  0  0  0
    4.4963   -8.9109   16.2745 C   0  0  0  0  0  0  0  0  0  0  0  0
    7.2004   -7.9974   15.4592 C   0  0  0  0  0  0  0  0  0  0  0  0
    8.2270   -7.5807   15.3889 C   0  0  0  0  0  0  0  0  0  0  0  0
    5.9785   -8.2714   17.5366 C   0  0  0  0  0  0  0  0  0  0  0  0
   10.1501   -7.3948   19.7066 C   0  0  0  0  0  0  0  0  0  0  0  0
    9.9871   -5.9962   17.8184 C   0  0  0  0  0  0  0  0  0  0  0  0
    6.4859   -7.2687   16.4960 B   0  0  0  0  0  0  0  0  0  0  0  0
    6.6200   -8.2745   18.3470 N   0  0  0  0  0  0  0  0  0  0  0  0
    1.5611  -11.3452   19.0464 C   0  0  0  0  0  0  0  0  0  0  0  0
    8.1318   -7.5004   16.0721 C   0  0  0  0  0  0  0  0  0  0  0  0
    6.9093   -9.0862   15.7444 O   0  0  0  0  0  0  0  0  0  0  0  0
   10.5658   -3.5784   20.4296 C   0  0  0  0  0  0  0  0  0  0  0  0
    2.5822   -9.3380   16.7818 F   0  0  0  0  0  0  0  0  0  0  0  0
    9.0080   -4.4020   17.0438 C   0  0  0  0  0  0  0  0  0  0  0  0
    2.2155   -9.6824   17.3406 C   0  0  0  0  0  0  0  0  0  0  0  0
   10.9762   -2.7946   17.0479 O   0  0  0  0  0  0  0  0  0  0  0  0
   10.5520   -4.4573   16.8303 O   0  0  0  0  0  0  0  0  0  0  0  0
    8.0146   -7.3815   17.9868 C   0  0  0  0  0  0  0  0  0  0  0  0
   10.7581   -4.6622   17.3807 He  0  0  0  0  0  0  0  0  0  0  0  0
    8.5951   -5.3889   15.9620 He  0  0  0  0  0  0  0  0  0  0  0  0
    1.2355  -10.7324   18.0949 He  0  0  0  0  0  0  0  0  0  0  0  0
   11.1210   -3.6614   19.2349 He  0  0  0  0  0  0  0  0  0  0  0  0
   10.6871   -6.1612   20.9283 He  0  0  0  0  0  0  0  0  0  0  0  0
    1.3235  -11.2997   18.3330 He  0  0  0  0  0  0  0  0  0  0  0  0
   11.0707   -3.1523   18.6551 He  0  0  0  0  0  0  0  0  0  0  0  0
    3.7182   -8.7941   16.3710 He  0  0  0  0  0  0  0  0  0  0  0  0
   10.8585   -4.8144   19.2170 He  0  0  0  0  0  0  0  0  0  0  0  0
  1  3  3  0
  1  4  2  0
  1 10  1  0
  1 12  1  0
  1 13  3  0
  1 16  2  0
  2  6  4  0
  2 11  4  0
  2 13  2  0
  3 10  1  0
  3 12  4  0
  3 16  3  0
  3 17  2  0
  3 18  3  0
  4  6  2  0
  4  9  2  0
  4 13  2  0
  4 14  3  0
  4 18  2  0
  4 20  4  0
  5  7  1  0
  5  8  1  0
  5 11  1  0
  5 13  1  0
  5 16  2  0
  5 18  4  0
  6  9  1  0
  6 11  1  0
  6 15  2  0
  6 16  3  0
  7  9  1  0
  7 11  3  0
  7 13  2  0
  7 17  2  0
  7 20  3  0
  8 13  4  0
  8 17  1  0
  9 13  3  0
 10 11  2  0
 10 12  3  0
 10 19  2  0
 11 12  2  0
 11 16  2  0
 11 18  1  0
 11 19  2  0
 11 20  4  0
 12 13  2  0
 12 16  2  0
 12 17  3  0
 12 19  3  0
 12 20  1  0
 13 14  2  0
 13 16  1  0
 14 18  4  0
 14 19  3  0
 15 16  2  0
 15 17  1  0
 15 19  1  0
 16 19  2  0
 19 20  4  0
M  END
$$$$

 Created by Python create_sdf_string function

 29 31  0  0  0  0  0  0  0  0999 V2000
    8.4232   -8.0897   18.0844 C   0  0  0  0  0  0  0  0  0  0  0  0
    3.5514  -10.3528   18.2069 C   0  0  0  0  0  0  0  0  0  0  0  0
    4.6225   -8.6659   16.5297 C   0  0  0  0  0  0  0  0  0  0  0  0
    6.6781   -8.2134   15.7184 C   0  0  0  0  0  0  0  0  0  0  0  0
    8.2426   -7.6129   15.6078 C   0  0  0  0  0  0  0  0  0  0  0  0
    5.8689   -8.1311   17.5725 C   0  0  0  0  0  0  0  0  0  0  0  0
    9.8445   -7.2423   18.7224 C   0  0  0  0  0  0  0  0  0  0  0  0
   10.5088   -4.6961   18.0613 C   0  0  0  0  0  0  0  0  0  0  0  0
    8.7253   -5.4468   16.0915 C   0  0  0  0  0  0  0  0  0  0  0  0
    9.8230   -6.1783   18.1513 C   0  0  0  0  0  0  0  0  0  0  0  0
    1.3548  -10.5830   17.9568 C   0  0  0  0  0  0  0  0  0  0  0  0
    5.8621   -7.8389   16.4747 C   0  0  0  0  0  0  0  0  0  0  0  0
    6.3261   -8.4197   18.3107 C   0  0  0  0  0  0  0  0  0  0  0  0
   11.0153   -3.2169   19.7374 C   0  0  0  0  0  0  0  0  0  0  0  0
    2.1988  -10.9757   18.5893 C   0  0  0  0  0  0  0  0  0  0  0  0
    8.3122   -7.6184   16.8213 C   0  0  0  0  0  0  0  0  0  0  0  0
    7.3649   -9.0159   15.2199 O   0  0  0  0  0  0  0  0  0  0  0  0
   10.7583   -5.4793   20.4848 C   0  0  0  0  0  0  0  0  0  0  0  0
   10.8542   -4.0512   20.6517 C   0  0  0  0  0  0  0  0  0  0  0  0
    2.4923   -9.1737   16.5825 C   0  0  0  0  0  0  0  0  0  0  0  0
    9.3725   -4.8203   16.4333 C   0  0  0  0  0  0  0  0  0  0  0  0
    1.4032  -11.5301   19.1229 O   0  0  0  0  0  0  0  0  0  0  0  0
   11.0264   -3.2595   18.4186 C   0  0  0  0  0  0  0  0  0  0  0  0
    1.5501   -9.7580   17.0683 C   0  0  0  0  0  0  0  0  0  0  0  0
    3.5626   -9.3250   17.1024 C   0  0  0  0  0  0  0  0  0  0  0  0
   11.3415   -2.6937   17.5161 O   0  0  0  0  0  0  0  0  0  0  0  0
   10.1150   -4.5008   16.5282 C   0  0  0  0  0  0  0  0  0  0  0  0
    7.9809   -7.1403   17.6627 C   0  0  0  0  0  0  0  0  0  0  0  0
   10.6760   -5.3665   19.2494 C   0  0  0  0  0  0  0  0  0  0  0  0
  1  7  1  0
  1 13  1  0
  1 16  1  0
  2 15  4  0
  2 25  4  0
  3 12  1  0
  3 25  1  0
  4 12  1  0
  4 17  1  0
  5 16  1  0
  5 17  1  0
  6 12  1  0
  6 13  1  0
  7 10  1  0
  8 10  1  0
  8 23  1  0
  8 27  4  0
  8 29  1  0
  9 21  1  0
 11 15  4  0
 11 24  4  0
 14 19  1  0
 14 23  1  0
 15 22  1  0
 16 28  1  0
 18 19  1  0
 18 29  1  0
 20 24  4  0
 20 25  4  0
 21 27  4  0
 23 26  2  0
M  END
$$$$

 Created by Python create_sdf_string function

 29 61  0  0  0  0  0  0  0  0999 V2000
    9.0373   -6.3260   18.5536 C   0  0  0  0  0  0  0  0  0  0  0  0
    3.3531  -10.1082   18.7566 C   0  0  0  0  0  0  0  0  0  0  0  0
    7.0652   -8.4234   16.1371 C   0  0  0  0  0  0  0  0  0  0  0  0
    8.2369   -7.4213   15.4359 C   0  0  0  0  0  0  0  0  0  0  0  0
    9.6594   -7.3075   18.0202 Cl  0  0  0  0  0  0  0  0  0  0  0  0
   10.5461   -6.1636   18.4222 C   0  0  0  0  0  0  0  0  0  0  0  0
    0.4611  -10.2239   18.3310 O   0  0  0  0  0  0  0  0  0  0  0  0
    6.9073   -7.2896   16.9162 Cl  0  0  0  0  0  0  0  0  0  0  0  0
    4.9724   -7.4192   19.1896 C   0  0  0  0  0  0  0  0  0  0  0  0
   10.5458   -2.5879   18.8809 C   0  0  0  0  0  0  0  0  0  0  0  0
    2.7906  -11.8933   18.9382 C   0  0  0  0  0  0  0  0  0  0  0  0
    7.1927   -7.1501   16.2341 C   0  0  0  0  0  0  0  0  0  0  0  0
   11.3910   -5.0208   21.4746 C   0  0  0  0  0  0  0  0  0  0  0  0
   11.9446   -4.5842   21.2792 F   0  0  0  0  0  0  0  0  0  0  0  0
    2.6194   -9.1879   16.0828 O   0  0  0  0  0  0  0  0  0  0  0  0
    9.3213   -5.5418   16.0097 C   0  0  0  0  0  0  0  0  0  0  0  0
    1.8322  -11.8381   18.5973 O   0  0  0  0  0  0  0  0  0  0  0  0
   10.9388   -2.2451   17.1159 C   0  0  0  0  0  0  0  0  0  0  0  0
    1.5947   -9.9291   16.2366 C   0  0  0  0  0  0  0  0  0  0  0  0
    4.6811   -8.2240   17.1854 P   0  0  0  0  0  0  0  0  0  0  0  0
    9.5700   -3.6365   17.6202 C   0  0  0  0  0  0  0  0  0  0  0  0
    7.5955   -7.5248   17.6596 C   0  0  0  0  0  0  0  0  0  0  0  0
    4.2873   -8.7634   16.8486 He  0  0  0  0  0  0  0  0  0  0  0  0
    5.5712   -9.2049   17.7647 He  0  0  0  0  0  0  0  0  0  0  0  0
   10.1844   -4.6475   18.1147 He  0  0  0  0  0  0  0  0  0  0  0  0
    8.0866   -5.7094   14.7759 He  0  0  0  0  0  0  0  0  0  0  0  0
    6.0460  -10.0921   15.7730 He  0  0  0  0  0  0  0  0  0  0  0  0
   11.5256   -2.3681   16.5941 He  0  0  0  0  0  0  0  0  0  0  0  0
   10.0125   -4.7984   19.3054 He  0  0  0  0  0  0  0  0  0  0  0  0
  1  5  3  0
  1  9  1  0
  1 10  3  0
  1 18  3  0
  2  5  1  0
  2 12  2  0
  2 14  1  0
  2 16  4  0
  2 18  1  0
  2 20  4  0
  3  4  2  0
  3  5  4  0
  3  8  1  0
  3  9  4  0
  3 20  1  0
  3 21  3  0
  4  6  2  0
  4 12  1  0
  4 14  2  0
  4 15  4  0
  4 17  1  0
  4 20  1  0
  5  6  1  0
  5  8  3  0
  5 10  1  0
  5 11  4  0
  5 12  2  0
  5 20  1  0
  5 22  2  0
  6  7  2  0
  6 17  4  0
  7  8  1  0
  7 19  2  0
  8 12  3  0
  8 19  3  0
  8 20  1  0
  9 11  4  0
  9 16  4  0
  9 18  4  0
  9 19  4  0
  9 22  4  0
 10 15  3  0
 10 22  1  0
 11 12  3  0
 11 14  1  0
 12 20  3  0
 13 14  4  0
 13 15  2  0
 13 21  4  0
 14 16  4  0
 14 19  2  0
 14 21  4  0
 14 22  2  0
 15 19  4  0
 15 20  3  0
 16 17  2  0
 16 19  4  0
 17 19  3  0
 19 20  2  0
 19 21  1  0
 21 22  1  0
M  END
$$$$

 Created by Python create_sdf_string function

 29 22  0  0  0  0  0  0  0  0999 V2000
    9.2360   -6.3852   18.3484 C   0  0  0  0  0  0  0  0  0  0  0  0
    3.5888  -10.5938   18.2610 C   0  0  0  0  0  0  0  0  0  0  0  0
    4.5020   -8.6585   17.0277 C   0  0  0  0  0  0  0  0  0  0  0  0
    6.7985   -8.5992   15.8990 C   0  0  0  0  0  0  0  0  0  0  0  0
    8.2479   -7.8371   15.3841 C   0  0  0  0  0  0  0  0  0  0  0  0
    5.3894   -8.9984   17.6983 C   0  0  0  0  0  0  0  0  0  0  0  0
    9.5167   -7.3109   18.2078 C   0  0  0  0  0  0  0  0  0  0  0  0
   10.4260   -4.5846   18.1366 C   0  0  0  0  0  0  0  0  0  0  0  0
    7.7385   -5.6469   15.5994 O   0  0  0  0  0  0  0  0  0  0  0  0
   10.2432   -6.0933   18.5515 C   0  0  0  0  0  0  0  0  0  0  0  0
    0.9602  -10.6987   17.7731 O   0  0  0  0  0  0  0  0  0  0  0  0
    6.6871   -7.5132   16.3558 C   0  0  0  0  0  0  0  0  0  0  0  0
    5.9306   -7.8848   18.4239 C   0  0  0  0  0  0  0  0  0  0  0  0
   11.1854   -2.9386   18.8875 C   0  0  0  0  0  0  0  0  0  0  0  0
    2.3740  -11.1609   18.5934 C   0  0  0  0  0  0  0  0  0  0  0  0
    7.8579   -7.0295   16.3464 C   0  0  0  0  0  0  0  0  0  0  0  0
    6.0845   -9.7825   15.8264 O   0  0  0  0  0  0  0  0  0  0  0  0
   11.1332   -4.6598   20.8521 C   0  0  0  0  0  0  0  0  0  0  0  0
   11.5590   -4.1492   20.9563 O   0  0  0  0  0  0  0  0  0  0  0  0
    2.5582   -9.2869   16.7655 C   0  0  0  0  0  0  0  0  0  0  0  0
    9.0554   -5.1915   16.2887 C   0  0  0  0  0  0  0  0  0  0  0  0
    2.0095  -11.5903   19.0966 O   0  0  0  0  0  0  0  0  0  0  0  0
   11.1912   -3.0934   17.2444 C   0  0  0  0  0  0  0  0  0  0  0  0
    1.6953   -9.7815   17.0769 C   0  0  0  0  0  0  0  0  0  0  0  0
    4.3917   -8.9145   17.1052 C   0  0  0  0  0  0  0  0  0  0  0  0
   11.4015   -2.8755   16.9829 O   0  0  0  0  0  0  0  0  0  0  0  0
    9.9677   -4.2533   17.1325 C   0  0  0  0  0  0  0  0  0  0  0  0
    7.5908   -7.5570   17.8500 C   0  0  0  0  0  0  0  0  0  0  0  0
   10.3491   -5.0259   19.4907 C   0  0  0  0  0  0  0  0  0  0  0  0
  1  7  1  0
  2 15  4  0
  2 25  4  0
  3 25  1  0
  4  5  1  0
  4 12  1  0
  4 17  1  0
  5 16  1  0
  6 13  1  0
  7 10  1  0
  8 10  1  0
  8 27  1  0
  9 21  1  0
 11 24  4  0
 12 16  1  0
 13 28  1  0
 15 22  4  0
 16 28  1  0
 18 19  1  0
 20 24  4  0
 21 27  1  0
 23 26  1  0
M  END
$$$$

 Created by Python create_sdf_string function

 29 50  0  0  0  0  0  0  0  0999 V2000
    8.7861   -5.2305   17.4475 C   0  0  0  0  0  0  0  0  0  0  0  0
    3.2219  -10.4707   18.5396 C   0  0  0  0  0  0  0  0  0  0  0  0
    6.2953   -8.6641   14.9966 C   0  0  0  0  0  0  0  0  0  0  0  0
    5.0751   -9.1924   17.6335 S   0  0  0  0  0  0  0  0  0  0  0  0
   10.2509   -7.9630   17.7865 I   0  0  0  0  0  0  0  0  0  0  0  0
   10.4226   -4.4046   17.4878 C   0  0  0  0  0  0  0  0  0  0  0  0
    7.5587   -5.3816   15.0825 O   0  0  0  0  0  0  0  0  0  0  0  0
    0.5815  -10.8302   17.3930 O   0  0  0  0  0  0  0  0  0  0  0  0
    7.0166   -7.9023   16.6365 C   0  0  0  0  0  0  0  0  0  0  0  0
    6.0257   -8.5230   17.7445 P   0  0  0  0  0  0  0  0  0  0  0  0
    6.0306  -10.8709   15.9170 O   0  0  0  0  0  0  0  0  0  0  0  0
   11.6772   -5.4626   20.9209 C   0  0  0  0  0  0  0  0  0  0  0  0
   11.4957   -3.7807   20.7703 O   0  0  0  0  0  0  0  0  0  0  0  0
    2.0998   -8.2659   16.4752 S   0  0  0  0  0  0  0  0  0  0  0  0
    9.4451   -4.2340   15.3104 C   0  0  0  0  0  0  0  0  0  0  0  0
   10.9078   -2.6605   17.2628 Se  0  0  0  0  0  0  0  0  0  0  0  0
    1.5015   -9.9148   16.5695 C   0  0  0  0  0  0  0  0  0  0  0  0
    4.4501  -10.1660   17.3010 C   0  0  0  0  0  0  0  0  0  0  0  0
    9.7262   -3.4928   16.5756 F   0  0  0  0  0  0  0  0  0  0  0  0
   10.1792   -5.2340   19.9752 O   0  0  0  0  0  0  0  0  0  0  0  0
    5.2601   -8.7827   17.4914 He  0  0  0  0  0  0  0  0  0  0  0  0
    8.3943   -7.7682   15.5169 He  0  0  0  0  0  0  0  0  0  0  0  0
    9.9220   -6.4683   18.8194 He  0  0  0  0  0  0  0  0  0  0  0  0
   11.5097   -2.7001   18.6251 He  0  0  0  0  0  0  0  0  0  0  0  0
    2.5880  -11.5810   18.8631 He  0  0  0  0  0  0  0  0  0  0  0  0
    8.0339   -7.9125   16.6947 He  0  0  0  0  0  0  0  0  0  0  0  0
    3.2351  -11.5941   18.9162 He  0  0  0  0  0  0  0  0  0  0  0  0
   11.8319   -3.1268   16.7086 He  0  0  0  0  0  0  0  0  0  0  0  0
    7.8568   -7.2355   18.6800 He  0  0  0  0  0  0  0  0  0  0  0  0
  1  2  2  0
  1 10  1  0
  1 13  4  0
  1 14  3  0
  1 15  1  0
  2  7  3  0
  2 16  2  0
  2 17  1  0
  2 18  2  0
  3  4  4  0
  3  9  1  0
  3 10  1  0
  3 13  1  0
  3 15  2  0
  4  5  2  0
  4  7  1  0
  4 11  1  0
  5  8  4  0
  5 14  2  0
  5 15  2  0
  5 16  1  0
  6  8  1  0
  6 11  3  0
  6 14  4  0
  6 17  3  0
  6 19  1  0
  6 20  2  0
  7 11  2  0
  7 15  4  0
  8 10  1  0
  8 11  2  0
  8 12  3  0
  8 14  1  0
  9 13  1  0
  9 14  1  0
  9 16  2  0
  9 18  3  0
 10 14  2  0
 11 12  1  0
 11 13  3  0
 11 15  4  0
 11 18  3  0
 12 15  2  0
 12 17  2  0
 13 14  1  0
 13 15  2  0
 13 16  1  0
 13 20  3  0
 15 18  3  0
 18 20  3  0
M  END
$$$$

 Created by Python create_sdf_string function

 29 24  0  0  0  0  0  0  0  0999 V2000
    9.1139   -5.7785   17.0554 C   0  0  0  0  0  0  0  0  0  0  0  0
    2.8999  -10.5413   17.9790 C   0  0  0  0  0  0  0  0  0  0  0  0
    4.5876   -9.2101   17.3825 C   0  0  0  0  0  0  0  0  0  0  0  0
    6.4933   -8.6846   15.5921 C   0  0  0  0  0  0  0  0  0  0  0  0
    8.2650   -8.0376   15.4301 C   0  0  0  0  0  0  0  0  0  0  0  0
    5.4328   -9.0355   17.2252 C   0  0  0  0  0  0  0  0  0  0  0  0
    9.6964   -7.5321   18.3052 C   0  0  0  0  0  0  0  0  0  0  0  0
   10.2618   -4.6964   17.8051 C   0  0  0  0  0  0  0  0  0  0  0  0
    7.6093   -5.4387   15.6191 O   0  0  0  0  0  0  0  0  0  0  0  0
   10.0226   -5.8596   18.5998 C   0  0  0  0  0  0  0  0  0  0  0  0
    0.6943  -10.7598   17.7468 O   0  0  0  0  0  0  0  0  0  0  0  0
    7.1088   -7.9798   16.2622 C   0  0  0  0  0  0  0  0  0  0  0  0
    6.2710   -8.1982   17.8912 C   0  0  0  0  0  0  0  0  0  0  0  0
   11.2366   -2.9224   18.6257 C   0  0  0  0  0  0  0  0  0  0  0  0
    2.4332  -11.4672   18.8040 C   0  0  0  0  0  0  0  0  0  0  0  0
    7.9529   -7.2321   16.6752 C   0  0  0  0  0  0  0  0  0  0  0  0
    6.0409  -10.2234   16.1454 O   0  0  0  0  0  0  0  0  0  0  0  0
   11.1237   -4.8724   20.7196 C   0  0  0  0  0  0  0  0  0  0  0  0
   11.3209   -3.8198   20.4222 O   0  0  0  0  0  0  0  0  0  0  0  0
    2.1740   -9.1552   16.6311 C   0  0  0  0  0  0  0  0  0  0  0  0
    9.3381   -4.3581   16.0924 C   0  0  0  0  0  0  0  0  0  0  0  0
    3.0879  -11.4021   18.7992 C   0  0  0  0  0  0  0  0  0  0  0  0
   11.1636   -3.2930   17.6371 C   0  0  0  0  0  0  0  0  0  0  0  0
    1.7771   -9.8832   17.1791 C   0  0  0  0  0  0  0  0  0  0  0  0
    3.8628   -9.9252   17.6111 C   0  0  0  0  0  0  0  0  0  0  0  0
   11.5116   -3.2615   16.9613 C   0  0  0  0  0  0  0  0  0  0  0  0
    9.9157   -3.8613   16.6496 C   0  0  0  0  0  0  0  0  0  0  0  0
    7.8677   -7.3781   18.0083 C   0  0  0  0  0  0  0  0  0  0  0  0
   10.5088   -5.4251   19.5995 O   0  0  0  0  0  0  0  0  0  0  0  0
  1 21  1  0
  2 15  4  0
  2 25  4  0
  3  6  1  0
  3 25  1  0
  4 12  1  0
  4 17  1  0
  6 13  1  0
  6 17  1  0
  7 10  1  0
  8 10  1  0
  8 27  1  0
 10 29  1  0
 11 24  4  0
 12 16  1  0
 13 28  1  0
 14 23  1  0
 15 22  4  0
 16 28  1  0
 18 19  1  0
 18 29  1  0
 20 24  4  0
 21 27  1  0
 23 26  1  0
M  END
$$$$

 Created by Python create_sdf_string function

 29 26  0  0  0  0  0  0  0  0999 V2000
    8.8932   -5.7492   16.6445 F   0  0  0  0  0  0  0  0  0  0  0  0
    8.5473   -8.1880   14.3121 C   0  0  0  0  0  0  0  0  0  0  0  0
    5.5963   -8.8876   16.6119 C   0  0  0  0  0  0  0  0  0  0  0  0
   10.0436   -8.5537   18.4996 C   0  0  0  0  0  0  0  0  0  0  0  0
   10.0890   -5.4207   17.4086 C   0  0  0  0  0  0  0  0  0  0  0  0
    8.0967   -5.3380   16.2291 O   0  0  0  0  0  0  0  0  0  0  0  0
    7.4633   -8.3371   16.4496 C   0  0  0  0  0  0  0  0  0  0  0  0
    2.1421  -12.1560   19.2247 C   0  0  0  0  0  0  0  0  0  0  0  0
    7.7455   -7.9384   16.5642 C   0  0  0  0  0  0  0  0  0  0  0  0
    6.1168  -10.8285   16.3915 O   0  0  0  0  0  0  0  0  0  0  0  0
   12.4760   -4.0419   20.0187 O   0  0  0  0  0  0  0  0  0  0  0  0
    9.2016   -5.8146   16.8345 C   0  0  0  0  0  0  0  0  0  0  0  0
    2.5757   -9.9752   17.0264 C   0  0  0  0  0  0  0  0  0  0  0  0
   10.1451   -4.5722   16.3543 C   0  0  0  0  0  0  0  0  0  0  0  0
    8.4812   -7.9250   17.7449 C   0  0  0  0  0  0  0  0  0  0  0  0
    1.9929   -9.8312   18.4411 He  0  0  0  0  0  0  0  0  0  0  0  0
    5.1637   -8.9080   17.0620 He  0  0  0  0  0  0  0  0  0  0  0  0
    7.0123   -8.8542   16.0864 He  0  0  0  0  0  0  0  0  0  0  0  0
   10.9570   -5.3088   18.2730 He  0  0  0  0  0  0  0  0  0  0  0  0
    1.1696   -9.8458   17.0923 He  0  0  0  0  0  0  0  0  0  0  0  0
    6.8874   -7.9811   17.0627 He  0  0  0  0  0  0  0  0  0  0  0  0
   11.6123   -2.8245   18.8545 He  0  0  0  0  0  0  0  0  0  0  0  0
    9.3957   -5.5193   20.7442 He  0  0  0  0  0  0  0  0  0  0  0  0
    2.9338   -9.6266   17.2532 He  0  0  0  0  0  0  0  0  0  0  0  0
    3.2725  -10.4799   19.2505 He  0  0  0  0  0  0  0  0  0  0  0  0
   11.7001   -3.3213   18.3191 He  0  0  0  0  0  0  0  0  0  0  0  0
    4.1221   -9.2388   17.5187 He  0  0  0  0  0  0  0  0  0  0  0  0
   11.3962   -2.7885   16.9083 He  0  0  0  0  0  0  0  0  0  0  0  0
   10.6596   -5.0563   19.9068 He  0  0  0  0  0  0  0  0  0  0  0  0
  1  2  2  0
  1  3  1  0
  1  5  1  0
  1  6  4  0
  1 14  3  0
  2  4  3  0
  2  6  4  0
  3  4  3  0
  3 11  4  0
  3 12  1  0
  4  6  3  0
  4  9  1  0
  4 11  2  0
  5 10  1  0
  5 14  3  0
  5 15  1  0
  6  9  2  0
  7  9  1  0
  7 14  1  0
  8 10  4  0
  8 13  3  0
  8 14  3  0
  9 15  4  0
 10 13  2  0
 10 14  3  0
 11 12  3  0
M  END
$$$$

 Created by Python create_sdf_string function

 29 26  0  0  0  0  0  0  0  0999 V2000
    8.9271   -5.8094   16.7215 C   0  0  0  0  0  0  0  0  0  0  0  0
    1.7340  -10.5291   17.9030 C   0  0  0  0  0  0  0  0  0  0  0  0
    4.7311   -8.7732   17.0966 C   0  0  0  0  0  0  0  0  0  0  0  0
    6.8187   -9.2885   15.7890 C   0  0  0  0  0  0  0  0  0  0  0  0
    8.4437   -8.0508   14.8782 C   0  0  0  0  0  0  0  0  0  0  0  0
    5.5961   -8.7249   17.1059 C   0  0  0  0  0  0  0  0  0  0  0  0
    9.7698   -7.8863   18.4622 C   0  0  0  0  0  0  0  0  0  0  0  0
    9.9749   -5.1917   17.6202 C   0  0  0  0  0  0  0  0  0  0  0  0
    7.7812   -5.2841   15.9038 O   0  0  0  0  0  0  0  0  0  0  0  0
   10.8134   -4.9661   18.6534 C   0  0  0  0  0  0  0  0  0  0  0  0
    1.1225  -10.3006   17.5609 C   0  0  0  0  0  0  0  0  0  0  0  0
    7.6212   -8.3880   16.0705 C   0  0  0  0  0  0  0  0  0  0  0  0
    6.3870   -7.7507   17.6660 C   0  0  0  0  0  0  0  0  0  0  0  0
   11.2134   -2.9074   18.1169 C   0  0  0  0  0  0  0  0  0  0  0  0
    2.1109  -11.4357   18.9266 C   0  0  0  0  0  0  0  0  0  0  0  0
    8.1940   -8.0109   16.9661 C   0  0  0  0  0  0  0  0  0  0  0  0
    6.2904  -10.4354   16.3505 O   0  0  0  0  0  0  0  0  0  0  0  0
   10.3221   -5.1198   20.5952 C   0  0  0  0  0  0  0  0  0  0  0  0
   12.0440   -3.9629   20.4282 O   0  0  0  0  0  0  0  0  0  0  0  0
    3.0212   -8.9343   16.7397 C   0  0  0  0  0  0  0  0  0  0  0  0
    9.1061   -5.8839   16.8239 C   0  0  0  0  0  0  0  0  0  0  0  0
    3.2856  -11.0353   18.7374 C   0  0  0  0  0  0  0  0  0  0  0  0
   11.1632   -3.7028   18.5354 C   0  0  0  0  0  0  0  0  0  0  0  0
    2.4483   -9.6402   17.1850 C   0  0  0  0  0  0  0  0  0  0  0  0
    3.6631   -9.8815   17.6398 C   0  0  0  0  0  0  0  0  0  0  0  0
   11.3595   -3.1207   16.8119 C   0  0  0  0  0  0  0  0  0  0  0  0
   10.0211   -4.0349   16.4571 C   0  0  0  0  0  0  0  0  0  0  0  0
    8.3534   -7.5024   17.8747 C   0  0  0  0  0  0  0  0  0  0  0  0
   10.6009   -5.0593   20.0236 C   0  0  0  0  0  0  0  0  0  0  0  0
  1  8  1  0
  1  9  2  0
  1 21  1  0
  2 11  4  0
  3  6  1  0
  3 20  1  0
  4 12  1  0
  4 17  1  0
  5 12  1  0
  6 13  1  0
  7 16  1  0
  8 10  1  0
  8 27  1  0
 10 23  1  0
 10 29  1  0
 11 15  4  0
 11 24  4  0
 12 16  1  0
 13 28  1  0
 14 23  1  0
 14 26  1  0
 15 22  4  0
 16 28  1  0
 18 29  1  0
 22 25  4  0
 24 25  4  0
M  END
$$$$

 Created by Python create_sdf_string function

 29 57  0  0  0  0  0  0  0  0999 V2000
    8.6304   -5.9004   16.1265 Se  0  0  0  0  0  0  0  0  0  0  0  0
    1.3049  -10.7374   17.8786 N   0  0  0  0  0  0  0  0  0  0  0  0
    7.0402   -8.8512   15.9066 C   0  0  0  0  0  0  0  0  0  0  0  0
    9.2540   -7.5349   14.4600 C   0  0  0  0  0  0  0  0  0  0  0  0
    5.3990   -7.7846   16.7821 C   0  0  0  0  0  0  0  0  0  0  0  0
    9.4234   -7.8698   18.1089 O   0  0  0  0  0  0  0  0  0  0  0  0
   10.4440   -4.9892   17.7054 C   0  0  0  0  0  0  0  0  0  0  0  0
    8.4553   -5.0950   15.5040 O   0  0  0  0  0  0  0  0  0  0  0  0
   10.4031   -3.9221   17.8509 C   0  0  0  0  0  0  0  0  0  0  0  0
    0.8829   -9.9046   16.9495 C   0  0  0  0  0  0  0  0  0  0  0  0
    6.1252   -8.1436   17.2743 C   0  0  0  0  0  0  0  0  0  0  0  0
   10.9564   -2.9070   17.6594 O   0  0  0  0  0  0  0  0  0  0  0  0
    2.2089  -11.1740   18.6091 C   0  0  0  0  0  0  0  0  0  0  0  0
    7.3243  -10.8159   15.8183 O   0  0  0  0  0  0  0  0  0  0  0  0
    9.8666   -4.8280   20.7115 C   0  0  0  0  0  0  0  0  0  0  0  0
    9.0884   -6.0548   16.7550 F   0  0  0  0  0  0  0  0  0  0  0  0
    3.2019  -10.5468   17.8482 C   0  0  0  0  0  0  0  0  0  0  0  0
   11.0798   -3.2764   19.6044 S   0  0  0  0  0  0  0  0  0  0  0  0
    2.1886   -9.0538   16.7722 O   0  0  0  0  0  0  0  0  0  0  0  0
   11.3845   -2.5324   17.8778 C   0  0  0  0  0  0  0  0  0  0  0  0
   10.0693   -4.5608   16.1745 C   0  0  0  0  0  0  0  0  0  0  0  0
    8.2256   -6.7889   17.6528 C   0  0  0  0  0  0  0  0  0  0  0  0
    5.3756   -9.4749   17.3467 He  0  0  0  0  0  0  0  0  0  0  0  0
    6.8401   -9.1521   15.9637 He  0  0  0  0  0  0  0  0  0  0  0  0
    7.8571   -8.0939   16.7335 He  0  0  0  0  0  0  0  0  0  0  0  0
   13.1606   -3.9252   20.0757 He  0  0  0  0  0  0  0  0  0  0  0  0
    2.2651   -8.8738   17.0935 He  0  0  0  0  0  0  0  0  0  0  0  0
    4.0970   -9.3452   17.4999 He  0  0  0  0  0  0  0  0  0  0  0  0
    9.7524   -4.4231   20.7004 He  0  0  0  0  0  0  0  0  0  0  0  0
  1  3  3  0
  1  6  4  0
  1  7  1  0
  2  4  1  0
  2  5  1  0
  2 10  4  0
  2 11  4  0
  2 16  3  0
  2 17  1  0
  2 19  2  0
  2 22  3  0
  3 14  3  0
  3 16  4  0
  3 17  1  0
  3 22  4  0
  4 20  4  0
  4 22  1  0
  5 16  2  0
  6  8  3  0
  6 10  4  0
  6 14  1  0
  6 15  1  0
  6 17  1  0
  7  9  1  0
  7 10  1  0
  7 12  3  0
  7 13  4  0
  7 21  1  0
  8  9  3  0
  8 11  2  0
  8 13  2  0
  8 14  1  0
  8 16  2  0
  8 17  1  0
  8 19  2  0
  9 16  3  0
  9 20  2  0
  9 21  1  0
  9 22  2  0
 10 13  4  0
 10 18  1  0
 10 19  4  0
 12 14  4  0
 12 15  2  0
 12 20  1  0
 12 22  1  0
 13 17  4  0
 13 20  2  0
 14 15  2  0
 15 16  2  0
 15 19  4  0
 15 20  4  0
 15 21  2  0
 16 18  2  0
 16 21  2  0
 18 20  2  0
 18 22  3  0
M  END
$$$$

 Created by Python create_sdf_string function

 29 23  0  0  0  0  0  0  0  0999 V2000
    8.9571   -6.1852   16.4405 C   0  0  0  0  0  0  0  0  0  0  0  0
    0.9253  -10.7673   17.8749 N   0  0  0  0  0  0  0  0  0  0  0  0
    5.3201   -9.1130   17.6002 C   0  0  0  0  0  0  0  0  0  0  0  0
    6.7792   -9.0093   15.7169 C   0  0  0  0  0  0  0  0  0  0  0  0
    8.4235   -7.7220   15.0467 C   0  0  0  0  0  0  0  0  0  0  0  0
    4.9641   -8.3794   17.1726 C   0  0  0  0  0  0  0  0  0  0  0  0
    9.3000   -7.6246   18.0782 C   0  0  0  0  0  0  0  0  0  0  0  0
   10.0869   -4.9830   18.0489 C   0  0  0  0  0  0  0  0  0  0  0  0
    7.9786   -4.7742   15.6132 O   0  0  0  0  0  0  0  0  0  0  0  0
   10.2953   -4.3918   17.6100 C   0  0  0  0  0  0  0  0  0  0  0  0
    1.1181  -10.1670   17.2918 C   0  0  0  0  0  0  0  0  0  0  0  0
    7.3171   -8.4973   16.0367 C   0  0  0  0  0  0  0  0  0  0  0  0
    6.0666   -8.0060   17.6843 C   0  0  0  0  0  0  0  0  0  0  0  0
   11.3904   -2.6702   17.6185 O   0  0  0  0  0  0  0  0  0  0  0  0
    2.1717  -11.0695   18.4445 C   0  0  0  0  0  0  0  0  0  0  0  0
    7.6405   -7.8967   17.3869 C   0  0  0  0  0  0  0  0  0  0  0  0
    6.7790  -10.1269   15.2412 O   0  0  0  0  0  0  0  0  0  0  0  0
   10.3671   -4.4358   20.5902 C   0  0  0  0  0  0  0  0  0  0  0  0
   12.1806   -3.9888   20.4133 O   0  0  0  0  0  0  0  0  0  0  0  0
    2.9788   -8.7269   16.7185 C   0  0  0  0  0  0  0  0  0  0  0  0
    8.8361   -5.5082   16.3410 C   0  0  0  0  0  0  0  0  0  0  0  0
    3.2398  -10.5058   18.1542 C   0  0  0  0  0  0  0  0  0  0  0  0
   11.1344   -3.5131   19.6060 C   0  0  0  0  0  0  0  0  0  0  0  0
    1.8062   -9.1798   16.6445 C   0  0  0  0  0  0  0  0  0  0  0  0
    3.4765   -9.3398   17.3048 C   0  0  0  0  0  0  0  0  0  0  0  0
   11.1958   -3.1413   18.2965 C   0  0  0  0  0  0  0  0  0  0  0  0
   10.0785   -4.2288   16.4082 C   0  0  0  0  0  0  0  0  0  0  0  0
    8.2476   -7.1391   17.4193 C   0  0  0  0  0  0  0  0  0  0  0  0
   10.4258   -4.5625   20.6168 C   0  0  0  0  0  0  0  0  0  0  0  0
  1  5  1  0
  1 21  1  0
  2 11  4  0
  2 15  4  0
  3  6  1  0
  4 12  1  0
  4 17  1  0
  5 12  1  0
  6 13  1  0
  6 25  1  0
  8 10  1  0
  9 21  2  0
 10 27  1  0
 11 24  4  0
 12 16  1  0
 14 26  1  0
 15 22  4  0
 16 28  1  0
 18 23  1  0
 18 29  1  0
 20 25  1  0
 22 25  4  0
 23 26  1  0
M  END
$$$$

 Created by Python create_sdf_string function

 29 45  0  0  0  0  0  0  0  0999 V2000
   10.1463   -5.4065   17.1633 P   0  0  0  0  0  0  0  0  0  0  0  0
    0.8315  -11.5515   18.4596 C   0  0  0  0  0  0  0  0  0  0  0  0
    4.9548   -9.1661   18.6580 C   0  0  0  0  0  0  0  0  0  0  0  0
    6.3268   -9.2998   15.9495 C   0  0  0  0  0  0  0  0  0  0  0  0
    8.9463   -8.7224   17.6706 C   0  0  0  0  0  0  0  0  0  0  0  0
   10.0159   -5.0400   17.6091 Cl  0  0  0  0  0  0  0  0  0  0  0  0
    7.5192   -5.0021   16.7241 O   0  0  0  0  0  0  0  0  0  0  0  0
   10.2631   -5.0940   17.2452 C   0  0  0  0  0  0  0  0  0  0  0  0
   -0.1357  -10.4623   16.5036 C   0  0  0  0  0  0  0  0  0  0  0  0
    9.0955   -9.1702   15.5260 C   0  0  0  0  0  0  0  0  0  0  0  0
    5.9707   -7.8451   18.3484 C   0  0  0  0  0  0  0  0  0  0  0  0
   11.7822   -2.7247   18.4724 O   0  0  0  0  0  0  0  0  0  0  0  0
    2.9555  -11.0953   18.1753 O   0  0  0  0  0  0  0  0  0  0  0  0
    7.1814  -10.1874   15.3913 O   0  0  0  0  0  0  0  0  0  0  0  0
   11.5598   -4.3595   20.8186 N   0  0  0  0  0  0  0  0  0  0  0  0
    3.6133  -12.0027   17.7428 C   0  0  0  0  0  0  0  0  0  0  0  0
    2.5992   -9.2673   16.8953 S   0  0  0  0  0  0  0  0  0  0  0  0
   11.8377   -3.3741   17.8753 C   0  0  0  0  0  0  0  0  0  0  0  0
    8.5001   -6.7888   17.3459 C   0  0  0  0  0  0  0  0  0  0  0  0
   10.4123   -4.5892   20.4216 F   0  0  0  0  0  0  0  0  0  0  0  0
    8.1344   -8.0454   16.5814 He  0  0  0  0  0  0  0  0  0  0  0  0
    3.5461   -8.1642   17.6138 He  0  0  0  0  0  0  0  0  0  0  0  0
    7.2578   -8.9717   17.7738 He  0  0  0  0  0  0  0  0  0  0  0  0
   11.3477   -4.0658   20.4899 He  0  0  0  0  0  0  0  0  0  0  0  0
    3.4881   -7.9877   16.6729 He  0  0  0  0  0  0  0  0  0  0  0  0
    9.0890   -5.8864   16.2093 He  0  0  0  0  0  0  0  0  0  0  0  0
   11.8198   -3.2478   19.8006 He  0  0  0  0  0  0  0  0  0  0  0  0
    2.4726   -8.2446   16.1337 He  0  0  0  0  0  0  0  0  0  0  0  0
   10.8829   -4.3176   15.7747 He  0  0  0  0  0  0  0  0  0  0  0  0
  1  2  2  0
  1  3  2  0
  1  5  1  0
  1 13  3  0
  1 16  4  0
  1 19  4  0
  2  7  1  0
  2  9  4  0
  2 15  3  0
  2 16  4  0
  2 17  2  0
  3  6  3  0
  3  8  1  0
  3  9  3  0
  3 17  1  0
  4 10  4  0
  4 12  3  0
  4 19  4  0
  5  6  3  0
  5 16  2  0
  5 17  4  0
  5 19  1  0
  6  7  2  0
  6 15  4  0
  7 13  3  0
  7 14  2  0
  7 17  4  0
  7 18  1  0
  7 20  2  0
  8 17  2  0
  9 10  4  0
  9 17  1  0
 10 11  3  0
 10 13  4  0
 11 17  2  0
 11 19  3  0
 11 20  3  0
 13 14  2  0
 13 20  2  0
 14 15  4  0
 14 16  3  0
 15 16  2  0
 15 19  4  0
 15 20  3  0
 16 17  4  0
M  END
$$$$

 Created by Python create_sdf_string function

 29 24  0  0  0  0  0  0  0  0999 V2000
    9.5114   -5.3678   17.1866 C   0  0  0  0  0  0  0  0  0  0  0  0
    1.1001  -11.0876   17.8793 C   0  0  0  0  0  0  0  0  0  0  0  0
    4.8047   -9.4045   18.0260 C   0  0  0  0  0  0  0  0  0  0  0  0
    6.6245   -8.9662   16.0915 C   0  0  0  0  0  0  0  0  0  0  0  0
    7.6492   -8.0100   16.2930 C   0  0  0  0  0  0  0  0  0  0  0  0
    4.4712   -8.6810   17.3980 C   0  0  0  0  0  0  0  0  0  0  0  0
    8.8835   -8.0214   17.9194 C   0  0  0  0  0  0  0  0  0  0  0  0
   10.0101   -5.1226   18.5115 C   0  0  0  0  0  0  0  0  0  0  0  0
    7.6761   -5.2525   15.6798 O   0  0  0  0  0  0  0  0  0  0  0  0
   10.2080   -4.7680   17.0732 C   0  0  0  0  0  0  0  0  0  0  0  0
    0.7428  -10.1675   16.9063 C   0  0  0  0  0  0  0  0  0  0  0  0
    8.5563   -8.2124   15.2232 C   0  0  0  0  0  0  0  0  0  0  0  0
    5.7711   -7.8674   17.6575 C   0  0  0  0  0  0  0  0  0  0  0  0
   11.5093   -2.5141   18.2281 O   0  0  0  0  0  0  0  0  0  0  0  0
    2.6736  -11.1906   18.5829 C   0  0  0  0  0  0  0  0  0  0  0  0
    7.1281   -8.4120   17.8890 C   0  0  0  0  0  0  0  0  0  0  0  0
    6.5629   -9.8531   15.5108 O   0  0  0  0  0  0  0  0  0  0  0  0
   11.1746   -3.6498   20.2230 C   0  0  0  0  0  0  0  0  0  0  0  0
   10.8270   -4.2079   20.5783 C   0  0  0  0  0  0  0  0  0  0  0  0
    3.2072   -8.3971   16.5173 C   0  0  0  0  0  0  0  0  0  0  0  0
    8.7439   -5.5810   16.4070 C   0  0  0  0  0  0  0  0  0  0  0  0
    2.7746  -10.5891   18.0534 C   0  0  0  0  0  0  0  0  0  0  0  0
   11.3947   -3.2340   19.4742 C   0  0  0  0  0  0  0  0  0  0  0  0
    2.0728   -8.8680   16.3604 C   0  0  0  0  0  0  0  0  0  0  0  0
    2.6812   -9.5725   17.1753 C   0  0  0  0  0  0  0  0  0  0  0  0
   11.2205   -3.3619   17.9633 C   0  0  0  0  0  0  0  0  0  0  0  0
   10.8998   -4.0724   16.3498 C   0  0  0  0  0  0  0  0  0  0  0  0
    8.4036   -7.2703   17.5359 C   0  0  0  0  0  0  0  0  0  0  0  0
   10.5211   -4.6189   20.6276 C   0  0  0  0  0  0  0  0  0  0  0  0
  1 10  4  0
  1 21  1  0
  2 11  4  0
  2 15  4  0
  3  6  1  0
  4  5  1  0
  4 17  1  0
  5 12  1  0
  5 28  1  0
  6 13  1  0
  6 20  4  0
  7 16  1  0
  7 28  1  0
  9 21  2  0
 10 27  1  0
 11 24  4  0
 14 26  4  0
 15 22  4  0
 18 23  1  0
 19 29  4  0
 20 24  4  0
 20 25  1  0
 22 25  4  0
 26 27  4  0
M  END
$$$$

 Created by Python create_sdf_string function

 29 68  0  0  0  0  0  0  0  0999 V2000
    9.2366   -4.8695   17.8719 C   0  0  0  0  0  0  0  0  0  0  0  0
    0.8030  -10.9175   17.5735 C   0  0  0  0  0  0  0  0  0  0  0  0
    4.9246   -9.5840   18.3053 Cl  0  0  0  0  0  0  0  0  0  0  0  0
    6.9666   -8.4029   16.6553 C   0  0  0  0  0  0  0  0  0  0  0  0
    7.6356   -8.7315   16.6405 C   0  0  0  0  0  0  0  0  0  0  0  0
    3.8120   -9.0238   17.5942 C   0  0  0  0  0  0  0  0  0  0  0  0
    9.4902   -7.1921   17.8317 C   0  0  0  0  0  0  0  0  0  0  0  0
    9.5864   -5.3133   18.5831 C   0  0  0  0  0  0  0  0  0  0  0  0
    7.3271   -4.7353   15.7050 O   0  0  0  0  0  0  0  0  0  0  0  0
    9.7421   -5.2261   17.5076 C   0  0  0  0  0  0  0  0  0  0  0  0
    0.7867  -10.3007   17.0769 C   0  0  0  0  0  0  0  0  0  0  0  0
    9.9261   -7.7552   15.5150 N   0  0  0  0  0  0  0  0  0  0  0  0
    5.9882   -8.1549   17.4926 N   0  0  0  0  0  0  0  0  0  0  0  0
   11.5573   -2.2045   17.2077 O   0  0  0  0  0  0  0  0  0  0  0  0
    7.3208   -9.0876   17.7640 O   0  0  0  0  0  0  0  0  0  0  0  0
    6.1628  -10.6718   15.3712 F   0  0  0  0  0  0  0  0  0  0  0  0
   11.5605   -3.8869   19.6874 C   0  0  0  0  0  0  0  0  0  0  0  0
   10.3955   -4.5670   20.8960 C   0  0  0  0  0  0  0  0  0  0  0  0
    2.5506   -8.3248   16.8823 C   0  0  0  0  0  0  0  0  0  0  0  0
    8.6209   -5.1668   16.6158 C   0  0  0  0  0  0  0  0  0  0  0  0
   11.5972   -4.0795   19.5415 Cl  0  0  0  0  0  0  0  0  0  0  0  0
    2.6894  -10.0018   17.1324 F   0  0  0  0  0  0  0  0  0  0  0  0
   11.1409   -3.5699   17.5529 C   0  0  0  0  0  0  0  0  0  0  0  0
    8.9805   -6.1513   16.5590 C   0  0  0  0  0  0  0  0  0  0  0  0
    2.6753  -11.1145   18.2409 He  0  0  0  0  0  0  0  0  0  0  0  0
    2.5631  -10.5795   18.8147 He  0  0  0  0  0  0  0  0  0  0  0  0
    1.8711  -10.0473   16.3364 He  0  0  0  0  0  0  0  0  0  0  0  0
   11.7115   -4.1594   16.3887 He  0  0  0  0  0  0  0  0  0  0  0  0
    9.6962   -5.0820   20.1576 He  0  0  0  0  0  0  0  0  0  0  0  0
  1  5  4  0
  1 10  4  0
  1 12  1  0
  1 14  2  0
  1 16  2  0
  1 20  1  0
  1 22  4  0
  2  4  4  0
  2 20  1  0
  2 24  1  0
  3  6  3  0
  3  8  4  0
  3 15  1  0
  3 18  4  0
  3 20  3  0
  4  6  4  0
  4  8  3  0
  4 22  2  0
  4 23  1  0
  5  6  4  0
  5  8  3  0
  5 11  1  0
  5 19  1  0
  5 22  2  0
  5 24  1  0
  6 13  1  0
  6 23  3  0
  6 24  3  0
  7 10  4  0
  7 12  2  0
  7 14  4  0
  7 15  1  0
  7 19  2  0
  7 20  2  0
  7 24  1  0
  8 11  4  0
  8 14  1  0
  8 22  2  0
  8 23  1  0
  9 10  4  0
  9 13  2  0
  9 14  4  0
  9 15  3  0
  9 16  2  0
  9 21  3  0
 10 12  4  0
 11 16  1  0
 11 23  4  0
 12 14  4  0
 12 17  2  0
 12 18  4  0
 12 21  4  0
 12 22  3  0
 13 19  4  0
 13 23  2  0
 15 17  3  0
 16 20  1  0
 16 21  2  0
 16 22  4  0
 17 19  2  0
 17 20  3  0
 18 21  2  0
 18 24  3  0
 19 22  1  0
 20 22  2  0
 20 24  4  0
 21 22  1  0
 22 24  2  0
M  END
$$$$

 Created by Python create_sdf_string function

 29 28  0  0  0  0  0  0  0  0999 V2000
    9.4525   -5.0552   17.4096 N   0  0  0  0  0  0  0  0  0  0  0  0
    0.6858  -11.2871   18.0388 C   0  0  0  0  0  0  0  0  0  0  0  0
    5.4918   -9.1972   18.1831 C   0  0  0  0  0  0  0  0  0  0  0  0
    6.7491   -8.6973   16.3350 C   0  0  0  0  0  0  0  0  0  0  0  0
    7.7904   -7.9883   16.0369 C   0  0  0  0  0  0  0  0  0  0  0  0
    4.5641   -8.7998   17.3307 C   0  0  0  0  0  0  0  0  0  0  0  0
    8.9703   -7.3795   17.9034 C   0  0  0  0  0  0  0  0  0  0  0  0
   10.2385   -4.8924   18.7279 C   0  0  0  0  0  0  0  0  0  0  0  0
    7.6419   -4.9884   15.5128 O   0  0  0  0  0  0  0  0  0  0  0  0
   10.1127   -4.9214   17.4148 C   0  0  0  0  0  0  0  0  0  0  0  0
    0.4735  -10.6038   17.0138 C   0  0  0  0  0  0  0  0  0  0  0  0
    8.9010   -8.1126   15.7888 C   0  0  0  0  0  0  0  0  0  0  0  0
    5.2300   -8.1204   17.1834 N   0  0  0  0  0  0  0  0  0  0  0  0
   11.8042   -2.5761   16.9334 O   0  0  0  0  0  0  0  0  0  0  0  0
    1.7831  -11.2878   18.6980 C   0  0  0  0  0  0  0  0  0  0  0  0
    7.3748   -8.4402   18.0317 C   0  0  0  0  0  0  0  0  0  0  0  0
    6.1820   -9.8074   15.6637 O   0  0  0  0  0  0  0  0  0  0  0  0
   11.2625   -3.8867   19.2312 C   0  0  0  0  0  0  0  0  0  0  0  0
   10.5025   -4.6360   21.0042 C   0  0  0  0  0  0  0  0  0  0  0  0
    3.2345   -8.5700   16.8191 C   0  0  0  0  0  0  0  0  0  0  0  0
    8.5645   -5.4938   16.4316 C   0  0  0  0  0  0  0  0  0  0  0  0
    2.7940  -10.6448   18.3194 C   0  0  0  0  0  0  0  0  0  0  0  0
   11.4950   -3.7509   20.0922 N   0  0  0  0  0  0  0  0  0  0  0  0
    1.4500   -9.6514   16.5771 C   0  0  0  0  0  0  0  0  0  0  0  0
    2.5492   -9.5903   17.2445 C   0  0  0  0  0  0  0  0  0  0  0  0
   11.2319   -3.6075   17.6281 C   0  0  0  0  0  0  0  0  0  0  0  0
   11.2165   -3.7792   16.5191 C   0  0  0  0  0  0  0  0  0  0  0  0
    8.4292   -6.8299   16.6614 C   0  0  0  0  0  0  0  0  0  0  0  0
   10.1079   -4.8118   20.3941 C   0  0  0  0  0  0  0  0  0  0  0  0
  1  8  4  0
  1 10  4  0
  1 21  1  0
  2 11  4  0
  2 15  4  0
  3  6  1  0
  3 16  1  0
  4  5  1  0
  4 17  1  0
  5 12  1  0
  5 28  1  0
  6 13  1  0
  6 20  1  0
  7 16  1  0
  7 28  1  0
  8 18  4  0
  9 21  2  0
 11 24  4  0
 14 27  1  0
 15 22  4  0
 18 23  4  0
 18 26  4  0
 19 29  4  0
 20 25  1  0
 21 28  1  0
 22 25  4  0
 24 25  4  0
 26 27  4  0
M  END
$$$$

 Created by Python create_sdf_string function

 29 48  0  0  0  0  0  0  0  0999 V2000
    9.6621   -5.3057   17.6908 N   0  0  0  0  0  0  0  0  0  0  0  0
    1.3094  -11.1178   18.3048 C   0  0  0  0  0  0  0  0  0  0  0  0
    6.2537  -10.0272   18.7408 C   0  0  0  0  0  0  0  0  0  0  0  0
    7.7882   -7.8152   16.5731 C   0  0  0  0  0  0  0  0  0  0  0  0
    3.8911   -8.7505   17.0561 C   0  0  0  0  0  0  0  0  0  0  0  0
   10.2255   -4.4223   18.7510 O   0  0  0  0  0  0  0  0  0  0  0  0
    7.7372   -5.0299   15.5818 C   0  0  0  0  0  0  0  0  0  0  0  0
    0.9721  -10.4473   17.0922 C   0  0  0  0  0  0  0  0  0  0  0  0
    4.3812   -7.9854   16.9674 N   0  0  0  0  0  0  0  0  0  0  0  0
   12.4154   -1.8339   16.4446 O   0  0  0  0  0  0  0  0  0  0  0  0
    2.7663  -11.1107   18.4938 C   0  0  0  0  0  0  0  0  0  0  0  0
    7.4714   -8.5382   17.1534 O   0  0  0  0  0  0  0  0  0  0  0  0
   10.6745   -3.6182   21.3273 C   0  0  0  0  0  0  0  0  0  0  0  0
    8.2334   -5.3573   16.7108 C   0  0  0  0  0  0  0  0  0  0  0  0
    3.1314  -10.3074   18.8217 C   0  0  0  0  0  0  0  0  0  0  0  0
   10.7973   -3.9948   20.6696 N   0  0  0  0  0  0  0  0  0  0  0  0
    1.1533   -9.0059   16.2653 C   0  0  0  0  0  0  0  0  0  0  0  0
   10.9589   -4.1959   17.7813 C   0  0  0  0  0  0  0  0  0  0  0  0
   11.9284   -3.8824   16.8658 N   0  0  0  0  0  0  0  0  0  0  0  0
    8.4132   -7.0076   16.8190 C   0  0  0  0  0  0  0  0  0  0  0  0
    9.6116   -4.6682   20.4767 C   0  0  0  0  0  0  0  0  0  0  0  0
    6.7210   -8.4681   15.2989 He  0  0  0  0  0  0  0  0  0  0  0  0
    8.7672   -7.4325   18.3545 He  0  0  0  0  0  0  0  0  0  0  0  0
   10.6374   -5.7467   17.7197 He  0  0  0  0  0  0  0  0  0  0  0  0
    7.9920   -8.1505   16.4968 He  0  0  0  0  0  0  0  0  0  0  0  0
    5.8009   -9.7055   14.6886 He  0  0  0  0  0  0  0  0  0  0  0  0
   11.7969   -4.1592   19.1459 He  0  0  0  0  0  0  0  0  0  0  0  0
    3.6702   -7.4811   16.3544 He  0  0  0  0  0  0  0  0  0  0  0  0
    3.0011   -9.8339   17.1668 He  0  0  0  0  0  0  0  0  0  0  0  0
  1  5  2  0
  1  6  4  0
  1 14  1  0
  1 15  3  0
  1 21  2  0
  2  8  4  0
  2 11  4  0
  2 14  3  0
  3  5  1  0
  3 12  1  0
  3 15  2  0
  3 16  4  0
  4  6  2  0
  4 18  3  0
  4 20  1  0
  5  8  2  0
  5 10  2  0
  5 12  3  0
  5 13  3  0
  5 14  4  0
  5 17  4  0
  6 11  3  0
  6 16  1  0
  6 17  2  0
  6 21  2  0
  7 12  2  0
  7 14  2  0
  7 20  4  0
  8 13  1  0
  8 16  3  0
  8 17  3  0
  9 15  1  0
  9 16  3  0
  9 18  4  0
 10 11  3  0
 10 13  4  0
 10 16  4  0
 10 19  1  0
 10 20  3  0
 11 19  2  0
 13 17  1  0
 13 19  3  0
 14 20  1  0
 16 19  3  0
 16 20  1  0
 18 20  2  0
 18 21  3  0
 19 21  2  0
M  END
$$$$

 Created by Python create_sdf_string function

 29 31  0  0  0  0  0  0  0  0999 V2000
    9.6459   -5.3244   17.5942 N   0  0  0  0  0  0  0  0  0  0  0  0
    1.1706  -11.1768   18.2397 C   0  0  0  0  0  0  0  0  0  0  0  0
    6.1987   -8.9501   17.8892 C   0  0  0  0  0  0  0  0  0  0  0  0
    6.6413   -8.5235   15.3716 C   0  0  0  0  0  0  0  0  0  0  0  0
    7.3666   -7.6041   16.0320 C   0  0  0  0  0  0  0  0  0  0  0  0
    4.7032   -8.5604   17.2259 C   0  0  0  0  0  0  0  0  0  0  0  0
    8.8197   -7.6380   18.2554 C   0  0  0  0  0  0  0  0  0  0  0  0
   10.2564   -4.5803   19.0402 C   0  0  0  0  0  0  0  0  0  0  0  0
    7.9170   -5.0497   15.8936 O   0  0  0  0  0  0  0  0  0  0  0  0
   10.3687   -5.0458   17.0907 C   0  0  0  0  0  0  0  0  0  0  0  0
    0.8402  -10.3628   17.3199 C   0  0  0  0  0  0  0  0  0  0  0  0
    8.2777   -8.2004   16.9918 C   0  0  0  0  0  0  0  0  0  0  0  0
    4.7191   -7.9230   16.9467 N   0  0  0  0  0  0  0  0  0  0  0  0
   12.2841   -2.5517   16.9009 O   0  0  0  0  0  0  0  0  0  0  0  0
    2.3775  -11.2317   18.7381 C   0  0  0  0  0  0  0  0  0  0  0  0
    7.2523   -8.4299   17.8580 C   0  0  0  0  0  0  0  0  0  0  0  0
    5.6803   -9.2552   15.2377 C   0  0  0  0  0  0  0  0  0  0  0  0
   11.2663   -3.7212   19.1642 C   0  0  0  0  0  0  0  0  0  0  0  0
   10.6048   -3.9535   21.2870 C   0  0  0  0  0  0  0  0  0  0  0  0
    3.8605   -8.3391   16.3559 C   0  0  0  0  0  0  0  0  0  0  0  0
    8.7142   -5.6028   16.5806 C   0  0  0  0  0  0  0  0  0  0  0  0
    3.2401  -10.4853   18.2261 C   0  0  0  0  0  0  0  0  0  0  0  0
   11.4533   -3.5421   20.3903 N   0  0  0  0  0  0  0  0  0  0  0  0
    1.6156   -9.5230   16.7487 C   0  0  0  0  0  0  0  0  0  0  0  0
    2.8353   -9.5504   17.2396 C   0  0  0  0  0  0  0  0  0  0  0  0
   11.4495   -3.5438   17.7704 C   0  0  0  0  0  0  0  0  0  0  0  0
   11.4132   -4.0339   16.8764 N   0  0  0  0  0  0  0  0  0  0  0  0
    8.4660   -6.9347   16.3186 C   0  0  0  0  0  0  0  0  0  0  0  0
    9.8640   -4.5186   20.3658 C   0  0  0  0  0  0  0  0  0  0  0  0
  1  8  4  0
  1 10  4  0
  1 21  1  0
  2 11  4  0
  2 15  4  0
  3  6  1  0
  3 16  1  0
  4  5  1  0
  4 17  1  0
  5 28  1  0
  6 13  1  0
  6 20  1  0
  7 12  1  0
  7 16  1  0
  8 18  4  0
  8 29  4  0
  9 21  2  0
 10 27  4  0
 11 24  4  0
 13 20  1  0
 14 26  2  0
 15 22  4  0
 18 23  4  0
 18 26  4  0
 19 23  4  0
 19 29  4  0
 20 25  1  0
 21 28  1  0
 22 25  4  0
 24 25  4  0
 26 27  4  0
M  END
$$$$

 Created by Python create_sdf_string function

 29 35  0  0  0  0  0  0  0  0999 V2000
   10.2098   -4.6657   17.9256 N   0  0  0  0  0  0  0  0  0  0  0  0
    6.8209   -8.8368   18.1175 C   0  0  0  0  0  0  0  0  0  0  0  0
    8.7557   -7.8080   18.5080 C   0  0  0  0  0  0  0  0  0  0  0  0
    1.1585   -9.9253   17.0781 N   0  0  0  0  0  0  0  0  0  0  0  0
    2.3653  -10.7875   18.2261 C   0  0  0  0  0  0  0  0  0  0  0  0
    7.7371   -8.6590   18.1115 C   0  0  0  0  0  0  0  0  0  0  0  0
    5.7070   -9.4670   15.3252 C   0  0  0  0  0  0  0  0  0  0  0  0
   11.2598   -3.8720   19.1961 I   0  0  0  0  0  0  0  0  0  0  0  0
   10.1450   -4.8951   21.6218 C   0  0  0  0  0  0  0  0  0  0  0  0
    3.8225   -8.0395   16.3110 Cl  0  0  0  0  0  0  0  0  0  0  0  0
    9.0206   -5.7305   15.8565 C   0  0  0  0  0  0  0  0  0  0  0  0
    3.6341  -10.3502   17.5578 C   0  0  0  0  0  0  0  0  0  0  0  0
   11.7565   -4.0229   20.4142 C   0  0  0  0  0  0  0  0  0  0  0  0
    2.3510   -9.2666   16.5388 C   0  0  0  0  0  0  0  0  0  0  0  0
    2.8215   -9.6936   17.4099 C   0  0  0  0  0  0  0  0  0  0  0  0
   11.5144   -3.2870   17.9108 C   0  0  0  0  0  0  0  0  0  0  0  0
   11.2240   -4.1927   16.8912 N   0  0  0  0  0  0  0  0  0  0  0  0
    8.6971   -6.6521   16.1928 C   0  0  0  0  0  0  0  0  0  0  0  0
   10.6275   -4.2398   21.2703 F   0  0  0  0  0  0  0  0  0  0  0  0
    0.9305  -10.9968   18.5882 He  0  0  0  0  0  0  0  0  0  0  0  0
    6.8957   -8.7769   16.2194 He  0  0  0  0  0  0  0  0  0  0  0  0
    7.2578   -7.0826   16.8250 He  0  0  0  0  0  0  0  0  0  0  0  0
    4.8553   -7.7996   16.5672 He  0  0  0  0  0  0  0  0  0  0  0  0
   10.1676   -4.8064   18.8801 He  0  0  0  0  0  0  0  0  0  0  0  0
    7.3321   -4.2926   15.5161 He  0  0  0  0  0  0  0  0  0  0  0  0
   10.5524   -5.0069   17.5497 He  0  0  0  0  0  0  0  0  0  0  0  0
    8.8772   -7.9198   17.0685 He  0  0  0  0  0  0  0  0  0  0  0  0
    4.2337   -7.2155   16.8634 He  0  0  0  0  0  0  0  0  0  0  0  0
   12.3527   -2.7698   17.1662 He  0  0  0  0  0  0  0  0  0  0  0  0
  1 11  1  0
  2 13  2  0
  3  6  3  0
  3  7  4  0
  3 11  4  0
  3 14  1  0
  3 15  2  0
  4  6  2  0
  4  7  1  0
  4  9  2  0
  4 14  1  0
  4 15  2  0
  4 18  3  0
  5 11  4  0
  5 12  2  0
  5 15  2  0
  5 17  4  0
  6  7  2  0
  6 14  2  0
  6 17  1  0
  7  8  3  0
  8  9  4  0
  8 13  4  0
  8 16  4  0
  8 18  2  0
  9 13  1  0
 10 16  4  0
 10 18  2  0
 11 18  1  0
 12 13  2  0
 12 15  2  0
 13 18  3  0
 14 15  1  0
 16 17  4  0
 18 19  1  0
M  END
$$$$

 Created by Python create_sdf_string function

 29 33  0  0  0  0  0  0  0  0999 V2000
    9.5044   -5.1533   17.6846 N   0  0  0  0  0  0  0  0  0  0  0  0
    1.2371  -10.9851   18.3119 C   0  0  0  0  0  0  0  0  0  0  0  0
    6.3760   -8.5423   17.8410 C   0  0  0  0  0  0  0  0  0  0  0  0
    6.9129   -8.5856   15.9330 C   0  0  0  0  0  0  0  0  0  0  0  0
    7.2746   -7.2323   15.9796 C   0  0  0  0  0  0  0  0  0  0  0  0
    5.0452   -8.3405   16.8601 N   0  0  0  0  0  0  0  0  0  0  0  0
    8.8522   -7.9796   18.3914 C   0  0  0  0  0  0  0  0  0  0  0  0
   10.1354   -4.7719   19.1205 C   0  0  0  0  0  0  0  0  0  0  0  0
    7.9247   -4.8317   15.5907 O   0  0  0  0  0  0  0  0  0  0  0  0
   10.0390   -4.8667   17.4184 C   0  0  0  0  0  0  0  0  0  0  0  0
    0.8436  -10.1709   17.3093 N   0  0  0  0  0  0  0  0  0  0  0  0
    9.1167   -7.9082   17.0958 C   0  0  0  0  0  0  0  0  0  0  0  0
    4.3273   -7.4621   16.6265 C   0  0  0  0  0  0  0  0  0  0  0  0
   12.1784   -2.3586   17.5470 O   0  0  0  0  0  0  0  0  0  0  0  0
    2.4696  -11.0634   18.6483 C   0  0  0  0  0  0  0  0  0  0  0  0
    7.3794   -8.4207   18.3309 C   0  0  0  0  0  0  0  0  0  0  0  0
    5.9259   -9.2880   15.6014 C   0  0  0  0  0  0  0  0  0  0  0  0
   11.1666   -3.8725   19.1284 C   0  0  0  0  0  0  0  0  0  0  0  0
   10.8045   -4.4851   21.4529 C   0  0  0  0  0  0  0  0  0  0  0  0
    4.0188   -8.2756   16.5769 C   0  0  0  0  0  0  0  0  0  0  0  0
    8.6615   -5.5070   16.2030 C   0  0  0  0  0  0  0  0  0  0  0  0
    3.4042  -10.3163   18.0340 C   0  0  0  0  0  0  0  0  0  0  0  0
   11.5191   -3.5170   20.3088 C   0  0  0  0  0  0  0  0  0  0  0  0
    1.7903   -9.3787   16.5978 C   0  0  0  0  0  0  0  0  0  0  0  0
    2.9595   -9.4272   17.0709 C   0  0  0  0  0  0  0  0  0  0  0  0
   11.4834   -3.3623   17.8475 C   0  0  0  0  0  0  0  0  0  0  0  0
   10.9316   -3.9256   16.8705 N   0  0  0  0  0  0  0  0  0  0  0  0
    8.5691   -6.9549   16.2238 N   0  0  0  0  0  0  0  0  0  0  0  0
   10.4609   -4.7041   20.9351 C   0  0  0  0  0  0  0  0  0  0  0  0
  1  8  4  0
  1 10  4  0
  1 21  1  0
  2 11  4  0
  2 15  4  0
  3  6  1  0
  3 16  1  0
  4  5  1  0
  4 17  1  0
  5 28  1  0
  6 13  1  0
  6 17  1  0
  6 20  1  0
  7 12  1  0
  7 16  1  0
  8 18  4  0
  8 29  4  0
  9 21  2  0
 10 27  4  0
 11 24  4  0
 12 28  1  0
 13 20  1  0
 14 26  2  0
 15 22  4  0
 18 23  4  0
 18 26  4  0
 19 23  1  0
 19 29  4  0
 20 25  1  0
 21 28  1  0
 22 25  4  0
 24 25  4  0
 26 27  4  0
M  END
$$$$

 Created by Python create_sdf_string function

 29 68  0  0  0  0  0  0  0  0999 V2000
    8.6506   -5.5266   18.5133 N   0  0  0  0  0  0  0  0  0  0  0  0
    5.6994   -8.1337   18.1518 C   0  0  0  0  0  0  0  0  0  0  0  0
    6.8727   -8.3837   15.9555 O   0  0  0  0  0  0  0  0  0  0  0  0
    7.4251   -7.1875   15.6630 C   0  0  0  0  0  0  0  0  0  0  0  0
    9.6338   -7.7863   19.2072 C   0  0  0  0  0  0  0  0  0  0  0  0
   10.1709   -3.7339   18.6932 N   0  0  0  0  0  0  0  0  0  0  0  0
    7.3572   -4.2889   16.4079 O   0  0  0  0  0  0  0  0  0  0  0  0
    9.2622   -5.5639   17.0230 C   0  0  0  0  0  0  0  0  0  0  0  0
    1.2294  -10.8029   17.0015 N   0  0  0  0  0  0  0  0  0  0  0  0
    9.5495   -7.5253   16.6037 C   0  0  0  0  0  0  0  0  0  0  0  0
    3.8076   -7.0726   16.6759 C   0  0  0  0  0  0  0  0  0  0  0  0
   11.9929   -2.3275   18.0314 O   0  0  0  0  0  0  0  0  0  0  0  0
    1.7274  -10.1453   18.2786 C   0  0  0  0  0  0  0  0  0  0  0  0
    7.3432   -8.0837   18.1673 C   0  0  0  0  0  0  0  0  0  0  0  0
    6.1830   -9.9375   15.4285 C   0  0  0  0  0  0  0  0  0  0  0  0
   11.8562   -4.6086   19.0707 C   0  0  0  0  0  0  0  0  0  0  0  0
    3.7541   -7.9801   17.0658 C   0  0  0  0  0  0  0  0  0  0  0  0
    8.6104   -5.5322   15.8785 Cl  0  0  0  0  0  0  0  0  0  0  0  0
    3.6844  -10.3903   18.0779 C   0  0  0  0  0  0  0  0  0  0  0  0
   11.0138   -3.5212   20.6560 N   0  0  0  0  0  0  0  0  0  0  0  0
    1.9924   -9.5002   17.1027 Cl  0  0  0  0  0  0  0  0  0  0  0  0
    2.8267   -9.7917   16.6423 Cl  0  0  0  0  0  0  0  0  0  0  0  0
   11.0856   -3.1519   17.4790 C   0  0  0  0  0  0  0  0  0  0  0  0
    9.0594   -6.6554   16.1187 Cl  0  0  0  0  0  0  0  0  0  0  0  0
    1.1988  -10.8258   18.4296 He  0  0  0  0  0  0  0  0  0  0  0  0
    5.5335   -8.9621   17.2348 He  0  0  0  0  0  0  0  0  0  0  0  0
   10.9635   -5.0813   21.3650 He  0  0  0  0  0  0  0  0  0  0  0  0
   11.2336   -4.3973   16.2036 He  0  0  0  0  0  0  0  0  0  0  0  0
   10.6097   -4.2981   20.9750 He  0  0  0  0  0  0  0  0  0  0  0  0
  1  6  2  0
  1  8  1  0
  1 13  3  0
  1 18  1  0
  2 13  2  0
  2 22  3  0
  3  4  1  0
  3  5  2  0
  3  7  2  0
  3  9  1  0
  3 12  1  0
  3 15  1  0
  3 18  2  0
  3 21  4  0
  3 23  3  0
  3 24  1  0
  4 10  4  0
  4 14  1  0
  4 17  1  0
  4 21  3  0
  4 23  3  0
  5 10  1  0
  5 11  3  0
  5 14  1  0
  5 15  4  0
  5 17  3  0
  6  8  1  0
  6  9  4  0
  6 15  1  0
  6 17  1  0
  7 14  4  0
  7 20  2  0
  7 24  3  0
  8 12  4  0
  8 20  3  0
  9 10  1  0
  9 15  3  0
  9 20  3  0
  9 21  1  0
  9 23  4  0
 10 12  2  0
 10 13  2  0
 10 19  2  0
 10 24  1  0
 12 14  1  0
 12 16  4  0
 12 20  1  0
 12 23  2  0
 12 24  4  0
 13 15  1  0
 13 19  3  0
 13 23  2  0
 14 15  4  0
 14 20  2  0
 15 20  2  0
 15 21  4  0
 15 22  2  0
 16 17  3  0
 16 20  4  0
 16 23  4  0
 17 22  1  0
 17 23  4  0
 18 21  3  0
 18 24  1  0
 19 22  4  0
 19 23  2  0
 20 23  2  0
 21 22  4  0
M  END
$$$$

 Created by Python create_sdf_string function

 29 33  0  0  0  0  0  0  0  0999 V2000
    8.9283   -5.1012   17.7705 N   0  0  0  0  0  0  0  0  0  0  0  0
    1.1075  -11.0508   18.2996 C   0  0  0  0  0  0  0  0  0  0  0  0
    6.0033   -8.2251   18.1112 C   0  0  0  0  0  0  0  0  0  0  0  0
    7.0711   -8.4070   15.6230 C   0  0  0  0  0  0  0  0  0  0  0  0
    7.2898   -7.4274   16.3573 C   0  0  0  0  0  0  0  0  0  0  0  0
    5.2525   -8.7142   16.9591 N   0  0  0  0  0  0  0  0  0  0  0  0
    8.8646   -7.8166   18.2634 C   0  0  0  0  0  0  0  0  0  0  0  0
   10.1036   -4.5835   19.0556 C   0  0  0  0  0  0  0  0  0  0  0  0
    7.9989   -4.7234   15.5546 O   0  0  0  0  0  0  0  0  0  0  0  0
    9.8931   -4.9331   17.5153 C   0  0  0  0  0  0  0  0  0  0  0  0
    0.8491  -10.3480   17.2481 N   0  0  0  0  0  0  0  0  0  0  0  0
    9.5821   -7.6816   16.8560 C   0  0  0  0  0  0  0  0  0  0  0  0
    3.8796   -7.4425   16.4097 C   0  0  0  0  0  0  0  0  0  0  0  0
   11.6940   -2.3560   17.8594 O   0  0  0  0  0  0  0  0  0  0  0  0
    2.2349  -11.1238   18.7927 C   0  0  0  0  0  0  0  0  0  0  0  0
    7.3913   -7.9500   17.8918 C   0  0  0  0  0  0  0  0  0  0  0  0
    6.1769   -9.3234   15.8217 C   0  0  0  0  0  0  0  0  0  0  0  0
   11.0589   -3.6997   19.1175 C   0  0  0  0  0  0  0  0  0  0  0  0
   10.7806   -4.4329   21.2552 C   0  0  0  0  0  0  0  0  0  0  0  0
    4.1028   -8.5316   16.7949 C   0  0  0  0  0  0  0  0  0  0  0  0
    8.4681   -5.4709   16.1486 C   0  0  0  0  0  0  0  0  0  0  0  0
    3.2338  -10.4515   18.2449 C   0  0  0  0  0  0  0  0  0  0  0  0
   11.4887   -3.5832   20.2868 N   0  0  0  0  0  0  0  0  0  0  0  0
    1.7870   -9.5572   16.6055 C   0  0  0  0  0  0  0  0  0  0  0  0
    3.0287   -9.5216   17.2425 C   0  0  0  0  0  0  0  0  0  0  0  0
   11.3158   -3.2604   17.7491 C   0  0  0  0  0  0  0  0  0  0  0  0
   10.7006   -4.1109   16.6468 C   0  0  0  0  0  0  0  0  0  0  0  0
    8.6269   -6.8349   16.0892 N   0  0  0  0  0  0  0  0  0  0  0  0
   10.0657   -4.8432   20.5530 C   0  0  0  0  0  0  0  0  0  0  0  0
  1 10  1  0
  1 21  1  0
  2 11  4  0
  2 15  4  0
  3  6  1  0
  3 16  1  0
  4  5  1  0
  4 17  1  0
  5 16  1  0
  5 28  1  0
  6 17  1  0
  6 20  1  0
  7 12  1  0
  7 16  1  0
  8 10  1  0
  8 18  4  0
  8 29  4  0
  9 21  2  0
 10 27  1  0
 11 24  4  0
 12 28  1  0
 13 20  1  0
 14 26  2  0
 15 22  4  0
 18 23  4  0
 18 26  4  0
 19 23  4  0
 19 29  4  0
 20 25  1  0
 21 28  1  0
 22 25  4  0
 24 25  4  0
 26 27  1  0
M  END
$$$$

 Created by Python create_sdf_string function

 29 44  0  0  0  0  0  0  0  0999 V2000
    9.6332   -5.7977   17.7380 N   0  0  0  0  0  0  0  0  0  0  0  0
    6.5547   -7.9670   18.2767 C   0  0  0  0  0  0  0  0  0  0  0  0
    6.7079   -7.2600   15.9212 N   0  0  0  0  0  0  0  0  0  0  0  0
    5.0405   -8.3123   16.9951 N   0  0  0  0  0  0  0  0  0  0  0  0
    9.0042   -7.1985   17.8049 C   0  0  0  0  0  0  0  0  0  0  0  0
   10.0374   -4.3528   18.6620 C   0  0  0  0  0  0  0  0  0  0  0  0
    9.1606   -5.0550   17.5424 C   0  0  0  0  0  0  0  0  0  0  0  0
    0.5922  -10.7938   17.0568 N   0  0  0  0  0  0  0  0  0  0  0  0
    9.6709   -7.3274   17.1712 Se  0  0  0  0  0  0  0  0  0  0  0  0
    3.4120   -7.3323   16.4613 C   0  0  0  0  0  0  0  0  0  0  0  0
    2.2802  -10.8599   18.8766 N   0  0  0  0  0  0  0  0  0  0  0  0
    7.6238   -7.7264   18.0382 C   0  0  0  0  0  0  0  0  0  0  0  0
    5.5495   -9.7769   16.3223 F   0  0  0  0  0  0  0  0  0  0  0  0
   10.1959   -3.8301   18.8151 C   0  0  0  0  0  0  0  0  0  0  0  0
   10.5452   -5.2949   20.8155 C   0  0  0  0  0  0  0  0  0  0  0  0
    4.4877   -8.6636   17.2423 C   0  0  0  0  0  0  0  0  0  0  0  0
    9.5778   -5.7577   16.1945 O   0  0  0  0  0  0  0  0  0  0  0  0
   10.8025   -3.6869   20.1858 S   0  0  0  0  0  0  0  0  0  0  0  0
    3.1742   -8.9653   17.3220 C   0  0  0  0  0  0  0  0  0  0  0  0
    8.8901   -6.1529   16.4987 N   0  0  0  0  0  0  0  0  0  0  0  0
    9.6202   -5.9071   20.6115 C   0  0  0  0  0  0  0  0  0  0  0  0
    0.9318  -11.2351   17.8338 He  0  0  0  0  0  0  0  0  0  0  0  0
    7.4700   -8.0047   15.9049 He  0  0  0  0  0  0  0  0  0  0  0  0
    7.4196   -4.7985   15.4248 He  0  0  0  0  0  0  0  0  0  0  0  0
   12.0699   -2.8822   17.6585 He  0  0  0  0  0  0  0  0  0  0  0  0
    3.5067   -9.6251   18.5278 He  0  0  0  0  0  0  0  0  0  0  0  0
    1.7202  -10.2087   16.1783 He  0  0  0  0  0  0  0  0  0  0  0  0
   11.1085   -3.2569   17.8188 He  0  0  0  0  0  0  0  0  0  0  0  0
   10.5955   -3.7547   16.3736 He  0  0  0  0  0  0  0  0  0  0  0  0
  1  5  1  0
  1  8  1  0
  1 14  3  0
  1 17  2  0
  1 18  3  0
  2  4  1  0
  2 11  2  0
  2 12  4  0
  2 21  3  0
  3 17  2  0
  4 13  1  0
  4 19  4  0
  4 21  2  0
  5  9  1  0
  5 10  2  0
  5 12  1  0
  5 17  2  0
  6  7  1  0
  6  9  4  0
  6 14  4  0
  6 19  1  0
  6 21  4  0
  7 10  1  0
  7 15  4  0
  7 16  4  0
  8 13  3  0
  8 14  4  0
  8 15  3  0
  8 16  4  0
  9 11  4  0
  9 12  3  0
  9 14  3  0
  9 15  1  0
  9 20  1  0
 10 15  1  0
 11 17  2  0
 13 15  1  0
 13 20  3  0
 14 18  4  0
 14 20  3  0
 15 18  4  0
 16 19  1  0
 17 20  1  0
 19 20  3  0
M  END
$$$$

 Created by Python create_sdf_string function

 29 35  0  0  0  0  0  0  0  0999 V2000
    9.2370   -5.7969   17.8641 N   0  0  0  0  0  0  0  0  0  0  0  0
    1.1044  -11.1538   18.1947 C   0  0  0  0  0  0  0  0  0  0  0  0
    6.1950   -7.9649   18.0125 C   0  0  0  0  0  0  0  0  0  0  0  0
    7.1683   -8.5375   15.5422 C   0  0  0  0  0  0  0  0  0  0  0  0
    7.3417   -7.2550   16.0346 C   0  0  0  0  0  0  0  0  0  0  0  0
    5.1963   -8.5898   17.0302 N   0  0  0  0  0  0  0  0  0  0  0  0
    8.6678   -7.2957   18.1043 C   0  0  0  0  0  0  0  0  0  0  0  0
   10.0827   -5.0326   18.7359 C   0  0  0  0  0  0  0  0  0  0  0  0
    7.9009   -4.8145   15.5016 O   0  0  0  0  0  0  0  0  0  0  0  0
    9.7649   -4.8567   17.2424 C   0  0  0  0  0  0  0  0  0  0  0  0
    0.8571  -10.5430   17.1086 N   0  0  0  0  0  0  0  0  0  0  0  0
    9.4562   -7.8387   17.1043 C   0  0  0  0  0  0  0  0  0  0  0  0
    3.7156   -7.4561   16.3238 C   0  0  0  0  0  0  0  0  0  0  0  0
   11.3827   -2.7933   17.1155 C   0  0  0  0  0  0  0  0  0  0  0  0
    2.2455  -11.1225   18.8238 N   0  0  0  0  0  0  0  0  0  0  0  0
    7.4671   -7.7010   17.8214 C   0  0  0  0  0  0  0  0  0  0  0  0
    5.9661   -9.2090   16.0582 C   0  0  0  0  0  0  0  0  0  0  0  0
   10.8002   -3.7525   19.0469 C   0  0  0  0  0  0  0  0  0  0  0  0
   10.6788   -4.7779   21.0647 C   0  0  0  0  0  0  0  0  0  0  0  0
    3.9483   -8.4852   16.8370 C   0  0  0  0  0  0  0  0  0  0  0  0
    8.5429   -5.7005   16.2459 C   0  0  0  0  0  0  0  0  0  0  0  0
    3.2336  -10.3975   18.2850 C   0  0  0  0  0  0  0  0  0  0  0  0
   11.0154   -3.6343   20.4551 N   0  0  0  0  0  0  0  0  0  0  0  0
    1.7246   -9.6931   16.5925 C   0  0  0  0  0  0  0  0  0  0  0  0
    2.9170   -9.5282   17.1960 C   0  0  0  0  0  0  0  0  0  0  0  0
   11.1455   -3.0035   18.0691 C   0  0  0  0  0  0  0  0  0  0  0  0
   10.4270   -3.7394   16.5925 C   0  0  0  0  0  0  0  0  0  0  0  0
    8.7925   -6.7753   15.9976 N   0  0  0  0  0  0  0  0  0  0  0  0
   10.1492   -5.6996   20.1345 C   0  0  0  0  0  0  0  0  0  0  0  0
  1  7  1  0
  1  8  1  0
  1 10  1  0
  2 11  4  0
  2 15  4  0
  3  6  1  0
  3 16  1  0
  4  5  1  0
  4 17  1  0
  5 16  1  0
  5 28  1  0
  6 17  1  0
  6 20  1  0
  7 12  1  0
  7 16  1  0
  8 10  1  0
  8 18  4  0
  8 29  4  0
  9 21  2  0
 10 21  1  0
 10 27  4  0
 11 24  4  0
 12 28  1  0
 13 20  2  0
 14 26  4  0
 14 27  4  0
 15 22  4  0
 18 23  4  0
 18 26  4  0
 19 23  4  0
 19 29  4  0
 20 25  1  0
 21 28  1  0
 22 25  4  0
 24 25  4  0
M  END
$$$$

 Created by Python create_sdf_string function

 29 59  0  0  0  0  0  0  0  0999 V2000
    9.7452   -5.5439   17.5250 P   0  0  0  0  0  0  0  0  0  0  0  0
    0.0627  -10.9591   18.1819 C   0  0  0  0  0  0  0  0  0  0  0  0
    6.8334   -8.2537   17.4329 C   0  0  0  0  0  0  0  0  0  0  0  0
    6.6571   -7.5701   15.8883 C   0  0  0  0  0  0  0  0  0  0  0  0
    7.3170   -6.5973   15.7534 C   0  0  0  0  0  0  0  0  0  0  0  0
    4.6186   -8.6885   17.0917 F   0  0  0  0  0  0  0  0  0  0  0  0
    8.9541   -7.3331   18.4397 C   0  0  0  0  0  0  0  0  0  0  0  0
    9.6276   -5.3489   18.7090 C   0  0  0  0  0  0  0  0  0  0  0  0
    7.6354   -5.6168   15.9616 O   0  0  0  0  0  0  0  0  0  0  0  0
    0.8126  -10.4877   16.6937 N   0  0  0  0  0  0  0  0  0  0  0  0
    9.1825   -7.2241   17.5407 C   0  0  0  0  0  0  0  0  0  0  0  0
    4.3208   -8.0256   15.7577 N   0  0  0  0  0  0  0  0  0  0  0  0
   11.4683   -2.4277   17.8638 C   0  0  0  0  0  0  0  0  0  0  0  0
    2.1907  -11.1955   18.6455 N   0  0  0  0  0  0  0  0  0  0  0  0
    7.1274   -8.0903   17.5605 O   0  0  0  0  0  0  0  0  0  0  0  0
    6.3507   -9.3998   16.0914 I   0  0  0  0  0  0  0  0  0  0  0  0
   10.7132   -3.5955   18.6393 C   0  0  0  0  0  0  0  0  0  0  0  0
   10.4279   -5.1535   21.1246 C   0  0  0  0  0  0  0  0  0  0  0  0
    4.1676   -8.6189   16.9153 C   0  0  0  0  0  0  0  0  0  0  0  0
    3.5060  -10.3055   18.7043 C   0  0  0  0  0  0  0  0  0  0  0  0
   11.1180   -3.5393   19.5694 N   0  0  0  0  0  0  0  0  0  0  0  0
    2.8807   -9.0478   16.9048 I   0  0  0  0  0  0  0  0  0  0  0  0
   11.6296   -3.4865   17.2766 C   0  0  0  0  0  0  0  0  0  0  0  0
    9.4506   -3.9869   16.2803 C   0  0  0  0  0  0  0  0  0  0  0  0
    9.1631   -5.4067   20.1097 C   0  0  0  0  0  0  0  0  0  0  0  0
    9.2141   -5.2426   17.4747 He  0  0  0  0  0  0  0  0  0  0  0  0
    8.1005   -5.6000   16.4826 He  0  0  0  0  0  0  0  0  0  0  0  0
    1.5202   -9.2850   16.6292 He  0  0  0  0  0  0  0  0  0  0  0  0
    8.7093   -7.0726   16.1064 He  0  0  0  0  0  0  0  0  0  0  0  0
  1  3  3  0
  1  7  1  0
  1  8  2  0
  1 12  1  0
  2  7  4  0
  2 10  4  0
  2 14  4  0
  3  6  1  0
  3  8  3  0
  3 12  4  0
  3 15  4  0
  3 16  1  0
  3 18  2  0
  3 23  3  0
  4  5  1  0
  4  6  3  0
  4 14  1  0
  4 16  1  0
  4 19  3  0
  4 21  2  0
  4 23  3  0
  5 10  2  0
  5 15  1  0
  5 19  1  0
  6 15  1  0
  6 16  1  0
  6 19  1  0
  7 15  1  0
  7 16  4  0
  7 17  1  0
  7 18  1  0
  8 12  3  0
  8 16  4  0
  8 17  4  0
  8 19  3  0
  8 25  4  0
  9 12  1  0
 10 18  4  0
 11 12  4  0
 11 13  3  0
 11 19  4  0
 11 25  3  0
 12 19  2  0
 13 18  2  0
 13 23  4  0
 13 24  4  0
 14 19  2  0
 14 20  1  0
 15 21  2  0
 16 18  2  0
 17 20  2  0
 17 21  4  0
 17 23  4  0
 18 19  3  0
 18 21  3  0
 18 25  4  0
 19 22  1  0
 22 23  3  0
 23 25  3  0
M  END
$$$$

 Created by Python create_sdf_string function

 29 35  0  0  0  0  0  0  0  0999 V2000
    9.5020   -5.8066   17.8141 C   0  0  0  0  0  0  0  0  0  0  0  0
    0.8078  -11.0290   18.0370 C   0  0  0  0  0  0  0  0  0  0  0  0
    6.4263   -8.6280   17.5441 C   0  0  0  0  0  0  0  0  0  0  0  0
    6.5108   -8.0225   15.3267 C   0  0  0  0  0  0  0  0  0  0  0  0
    7.0737   -7.5089   16.0501 C   0  0  0  0  0  0  0  0  0  0  0  0
    5.1500   -8.8458   17.2027 N   0  0  0  0  0  0  0  0  0  0  0  0
    8.6070   -7.3129   18.2668 C   0  0  0  0  0  0  0  0  0  0  0  0
   10.0910   -5.0586   18.7562 C   0  0  0  0  0  0  0  0  0  0  0  0
    7.4770   -5.2035   15.4408 O   0  0  0  0  0  0  0  0  0  0  0  0
    9.3366   -5.0405   16.7847 C   0  0  0  0  0  0  0  0  0  0  0  0
    0.6585  -10.2024   17.0502 N   0  0  0  0  0  0  0  0  0  0  0  0
    9.3119   -7.8134   16.9995 C   0  0  0  0  0  0  0  0  0  0  0  0
    3.8425   -7.9931   15.8161 O   0  0  0  0  0  0  0  0  0  0  0  0
   10.9134   -3.0081   16.7876 C   0  0  0  0  0  0  0  0  0  0  0  0
    1.9429  -11.1504   18.6909 N   0  0  0  0  0  0  0  0  0  0  0  0
    7.1994   -7.8474   17.8258 C   0  0  0  0  0  0  0  0  0  0  0  0
    6.2585   -9.2364   16.0470 C   0  0  0  0  0  0  0  0  0  0  0  0
   10.8482   -3.8387   18.7760 C   0  0  0  0  0  0  0  0  0  0  0  0
   10.5689   -4.4356   20.8427 C   0  0  0  0  0  0  0  0  0  0  0  0
    4.0516   -8.7272   16.6994 C   0  0  0  0  0  0  0  0  0  0  0  0
    8.3452   -5.7124   16.0574 C   0  0  0  0  0  0  0  0  0  0  0  0
    3.0395  -10.4450   18.2507 C   0  0  0  0  0  0  0  0  0  0  0  0
   11.1182   -3.6099   20.1637 N   0  0  0  0  0  0  0  0  0  0  0  0
    1.6667   -9.4858   16.5373 C   0  0  0  0  0  0  0  0  0  0  0  0
    2.8795   -9.5724   17.1963 C   0  0  0  0  0  0  0  0  0  0  0  0
   11.1273   -3.1081   17.9056 C   0  0  0  0  0  0  0  0  0  0  0  0
    9.8822   -3.8580   16.2658 C   0  0  0  0  0  0  0  0  0  0  0  0
    8.5029   -7.0495   16.0284 N   0  0  0  0  0  0  0  0  0  0  0  0
   10.0897   -5.4071   20.1444 C   0  0  0  0  0  0  0  0  0  0  0  0
  1  7  1  0
  1  8  4  0
  1 10  4  0
  2 11  4  0
  2 15  4  0
  3  6  1  0
  3 16  1  0
  3 17  1  0
  4  5  1  0
  4 17  1  0
  5 16  1  0
  5 28  1  0
  6 17  1  0
  6 20  1  0
  7 12  1  0
  7 16  1  0
  8 18  4  0
  8 29  4  0
  9 21  2  0
 10 21  1  0
 10 27  4  0
 11 24  4  0
 12 28  1  0
 13 20  2  0
 14 26  4  0
 14 27  4  0
 15 22  4  0
 18 23  4  0
 18 26  4  0
 19 23  4  0
 19 29  4  0
 20 25  1  0
 21 28  1  0
 22 25  4  0
 24 25  4  0
M  END
$$$$

 Created by Python create_sdf_string function

 29 59  0  0  0  0  0  0  0  0999 V2000
    9.4178   -5.9604   18.2593 O   0  0  0  0  0  0  0  0  0  0  0  0
    1.4076  -10.0115   17.5102 C   0  0  0  0  0  0  0  0  0  0  0  0
    6.0027   -7.6215   15.4095 C   0  0  0  0  0  0  0  0  0  0  0  0
    7.0614   -7.3838   15.8899 C   0  0  0  0  0  0  0  0  0  0  0  0
    4.3094   -8.8389   16.7249 N   0  0  0  0  0  0  0  0  0  0  0  0
    7.1063   -4.8640   15.3599 O   0  0  0  0  0  0  0  0  0  0  0  0
    9.1811   -4.6776   16.7749 C   0  0  0  0  0  0  0  0  0  0  0  0
    0.5756  -10.4920   16.6344 N   0  0  0  0  0  0  0  0  0  0  0  0
    4.0656   -7.1900   15.6152 F   0  0  0  0  0  0  0  0  0  0  0  0
   10.4996   -2.9423   17.0857 Cl  0  0  0  0  0  0  0  0  0  0  0  0
    1.5355  -10.9543   19.1020 N   0  0  0  0  0  0  0  0  0  0  0  0
    7.0076   -8.0102   17.7352 C   0  0  0  0  0  0  0  0  0  0  0  0
    6.2706   -9.4710   16.2132 C   0  0  0  0  0  0  0  0  0  0  0  0
   10.8095   -4.6603   21.0055 C   0  0  0  0  0  0  0  0  0  0  0  0
    4.1505   -8.2114   17.0215 N   0  0  0  0  0  0  0  0  0  0  0  0
    8.1720   -6.7733   16.4748 C   0  0  0  0  0  0  0  0  0  0  0  0
   11.3348   -3.7227   20.2534 N   0  0  0  0  0  0  0  0  0  0  0  0
    0.8796   -9.5160   16.1989 C   0  0  0  0  0  0  0  0  0  0  0  0
    2.7721   -9.4012   16.6161 C   0  0  0  0  0  0  0  0  0  0  0  0
   11.1882   -3.0980   16.9081 C   0  0  0  0  0  0  0  0  0  0  0  0
    9.1568   -4.1266   16.3520 C   0  0  0  0  0  0  0  0  0  0  0  0
    8.3088   -7.0081   16.0979 N   0  0  0  0  0  0  0  0  0  0  0  0
   10.4743   -5.6448   19.4017 C   0  0  0  0  0  0  0  0  0  0  0  0
    6.1040   -9.2763   18.5351 He  0  0  0  0  0  0  0  0  0  0  0  0
    8.1209   -6.9008   18.0243 He  0  0  0  0  0  0  0  0  0  0  0  0
    9.9089   -5.3719   18.5373 He  0  0  0  0  0  0  0  0  0  0  0  0
    9.3733   -7.7476   16.8322 He  0  0  0  0  0  0  0  0  0  0  0  0
   10.7087   -4.2197   18.6244 He  0  0  0  0  0  0  0  0  0  0  0  0
    2.9499   -9.7161   18.3263 He  0  0  0  0  0  0  0  0  0  0  0  0
  1  6  2  0
  1  7  4  0
  1  8  2  0
  1  9  3  0
  1 17  4  0
  1 20  3  0
  1 21  4  0
  2  8  4  0
  2 11  4  0
  2 17  3  0
  2 18  2  0
  3  4  1  0
  3 13  1  0
  3 14  4  0
  3 18  3  0
  3 21  3  0
  3 23  4  0
  4 13  4  0
  4 16  3  0
  4 22  1  0
  5  6  4  0
  5  8  1  0
  5 10  1  0
  5 12  4  0
  5 15  1  0
  6  9  3  0
  6 14  3  0
  6 16  2  0
  6 21  1  0
  7  8  2  0
  7  9  4  0
  7 11  2  0
  7 16  1  0
  7 21  4  0
  8  9  1  0
  8 12  3  0
  8 18  4  0
  9 12  2  0
  9 15  2  0
 10 20  4  0
 10 21  4  0
 10 23  3  0
 11 18  3  0
 11 23  1  0
 12 14  2  0
 12 18  1  0
 12 19  3  0
 12 23  2  0
 14 17  4  0
 14 23  4  0
 15 19  1  0
 15 21  4  0
 16 20  4  0
 16 22  1  0
 16 23  1  0
 17 18  2  0
 18 19  2  0
 19 21  3  0
 19 22  3  0
M  END
$$$$

 Created by Python create_sdf_string function

 29 35  0  0  0  0  0  0  0  0999 V2000
    9.5453   -5.6500   17.8472 C   0  0  0  0  0  0  0  0  0  0  0  0
    0.7270  -10.7772   17.9099 C   0  0  0  0  0  0  0  0  0  0  0  0
    5.8089   -8.9147   17.9058 C   0  0  0  0  0  0  0  0  0  0  0  0
    6.0042   -7.9595   15.4123 C   0  0  0  0  0  0  0  0  0  0  0  0
    6.9892   -7.7924   16.0954 C   0  0  0  0  0  0  0  0  0  0  0  0
    4.7562   -8.5973   17.2061 N   0  0  0  0  0  0  0  0  0  0  0  0
    8.2005   -7.2504   18.3708 C   0  0  0  0  0  0  0  0  0  0  0  0
   10.1519   -5.2566   18.8253 C   0  0  0  0  0  0  0  0  0  0  0  0
    7.2278   -5.3409   15.2920 O   0  0  0  0  0  0  0  0  0  0  0  0
    9.0560   -5.0959   16.7222 C   0  0  0  0  0  0  0  0  0  0  0  0
    0.5386  -10.1571   16.8083 N   0  0  0  0  0  0  0  0  0  0  0  0
    9.1981   -8.1120   17.0146 C   0  0  0  0  0  0  0  0  0  0  0  0
    3.7002   -7.6127   15.7999 O   0  0  0  0  0  0  0  0  0  0  0  0
   10.6308   -3.3141   16.5157 C   0  0  0  0  0  0  0  0  0  0  0  0
    1.7508  -10.8325   18.6385 N   0  0  0  0  0  0  0  0  0  0  0  0
    7.0672   -7.9656   18.0360 C   0  0  0  0  0  0  0  0  0  0  0  0
    6.3871   -9.3051   16.2471 C   0  0  0  0  0  0  0  0  0  0  0  0
   10.7351   -4.0835   18.7082 C   0  0  0  0  0  0  0  0  0  0  0  0
   10.9890   -4.7786   20.8885 C   0  0  0  0  0  0  0  0  0  0  0  0
    3.8693   -8.4786   16.6437 C   0  0  0  0  0  0  0  0  0  0  0  0
    7.9924   -5.9034   16.0156 C   0  0  0  0  0  0  0  0  0  0  0  0
    2.8141  -10.1726   18.1604 C   0  0  0  0  0  0  0  0  0  0  0  0
   11.3095   -3.7511   20.0906 N   0  0  0  0  0  0  0  0  0  0  0  0
    1.5368   -9.4112   16.2461 C   0  0  0  0  0  0  0  0  0  0  0  0
    2.7304   -9.3454   17.0290 C   0  0  0  0  0  0  0  0  0  0  0  0
   11.0114   -3.2806   17.7230 C   0  0  0  0  0  0  0  0  0  0  0  0
    9.4971   -3.9953   16.2227 C   0  0  0  0  0  0  0  0  0  0  0  0
    8.1577   -7.2028   16.0148 N   0  0  0  0  0  0  0  0  0  0  0  0
   10.3190   -5.7133   20.1575 C   0  0  0  0  0  0  0  0  0  0  0  0
  1  7  1  0
  1  8  4  0
  1 10  4  0
  2 11  4  0
  2 15  4  0
  3  6  1  0
  3 16  1  0
  3 17  1  0
  4  5  1  0
  4 13  1  0
  4 17  1  0
  5 16  1  0
  5 28  1  0
  6 20  1  0
  7 12  1  0
  7 16  1  0
  8 18  4  0
  8 29  4  0
  9 21  2  0
 10 21  1  0
 10 27  4  0
 11 24  4  0
 12 28  1  0
 13 20  2  0
 14 26  4  0
 14 27  4  0
 15 22  4  0
 18 23  4  0
 18 26  4  0
 19 23  4  0
 19 29  4  0
 20 25  1  0
 21 28  1  0
 22 25  4  0
 24 25  4  0
M  END
$$$$

 Created by Python create_sdf_string function

 29 43  0  0  0  0  0  0  0  0999 V2000
    9.1778   -5.8198   17.9522 C   0  0  0  0  0  0  0  0  0  0  0  0
    0.5994  -10.9377   18.4114 C   0  0  0  0  0  0  0  0  0  0  0  0
    5.6242   -8.4216   17.9788 O   0  0  0  0  0  0  0  0  0  0  0  0
    6.4153   -7.8024   16.5024 C   0  0  0  0  0  0  0  0  0  0  0  0
    4.6341   -9.4197   17.4250 O   0  0  0  0  0  0  0  0  0  0  0  0
    9.3334   -7.4138   18.0949 C   0  0  0  0  0  0  0  0  0  0  0  0
   10.3954   -4.9736   18.5250 C   0  0  0  0  0  0  0  0  0  0  0  0
    7.8604   -5.7513   15.2214 O   0  0  0  0  0  0  0  0  0  0  0  0
    8.4077   -5.2002   16.5672 C   0  0  0  0  0  0  0  0  0  0  0  0
   10.2747   -3.5970   16.0894 C   0  0  0  0  0  0  0  0  0  0  0  0
    7.2300   -8.2943   18.0371 C   0  0  0  0  0  0  0  0  0  0  0  0
    5.9421   -9.3025   16.2183 C   0  0  0  0  0  0  0  0  0  0  0  0
    3.7429   -9.1120   17.1708 C   0  0  0  0  0  0  0  0  0  0  0  0
    8.4819   -5.9282   15.7381 C   0  0  0  0  0  0  0  0  0  0  0  0
    2.9836  -10.2582   18.1347 C   0  0  0  0  0  0  0  0  0  0  0  0
   11.6421   -4.4563   20.5992 N   0  0  0  0  0  0  0  0  0  0  0  0
    2.8755   -9.9601   16.2317 C   0  0  0  0  0  0  0  0  0  0  0  0
   11.1740   -3.7791   17.3327 C   0  0  0  0  0  0  0  0  0  0  0  0
    7.9534   -7.3075   15.5122 N   0  0  0  0  0  0  0  0  0  0  0  0
   10.5026   -5.6085   20.2544 C   0  0  0  0  0  0  0  0  0  0  0  0
    5.5857   -8.4008   15.5617 He  0  0  0  0  0  0  0  0  0  0  0  0
    0.2547  -10.2658   17.4051 He  0  0  0  0  0  0  0  0  0  0  0  0
    9.6004   -7.4792   17.3183 He  0  0  0  0  0  0  0  0  0  0  0  0
    3.9341   -6.9939   15.5955 He  0  0  0  0  0  0  0  0  0  0  0  0
    1.8605  -10.3166   19.0415 He  0  0  0  0  0  0  0  0  0  0  0  0
   10.8676   -3.8357   19.4512 He  0  0  0  0  0  0  0  0  0  0  0  0
   10.5507   -4.7911   20.6073 He  0  0  0  0  0  0  0  0  0  0  0  0
    1.6026   -8.9763   16.0117 He  0  0  0  0  0  0  0  0  0  0  0  0
    9.1995   -4.3384   15.8090 He  0  0  0  0  0  0  0  0  0  0  0  0
  1  6  1  0
  1  7  4  0
  1  8  2  0
  1  9  4  0
  1 10  1  0
  1 12  2  0
  1 14  4  0
  2  9  4  0
  2 11  4  0
  2 14  4  0
  3  5  1  0
  3  8  1  0
  3 11  1  0
  3 12  1  0
  4 11  1  0
  4 19  1  0
  4 20  1  0
  5 11  3  0
  5 12  3  0
  5 15  1  0
  6 17  3  0
  7  9  1  0
  7 20  4  0
  8 15  3  0
  8 16  2  0
  9 12  4  0
  9 14  1  0
  9 16  1  0
 10 15  4  0
 10 17  2  0
 10 18  4  0
 11 15  2  0
 11 17  3  0
 11 18  4  0
 12 14  2  0
 12 16  3  0
 13 17  1  0
 13 18  4  0
 14 19  1  0
 15 17  4  0
 15 20  1  0
 16 19  2  0
 18 20  2  0
M  END
$$$$

 Created by Python create_sdf_string function

 29 33  0  0  0  0  0  0  0  0999 V2000
    9.6287   -5.7250   17.7807 C   0  0  0  0  0  0  0  0  0  0  0  0
    0.4739  -10.8537   18.2137 C   0  0  0  0  0  0  0  0  0  0  0  0
    5.6465   -8.5932   18.1748 O   0  0  0  0  0  0  0  0  0  0  0  0
    5.5962   -8.1642   15.5766 C   0  0  0  0  0  0  0  0  0  0  0  0
    6.6367   -7.8538   16.2603 C   0  0  0  0  0  0  0  0  0  0  0  0
    4.8995   -9.3260   17.3749 O   0  0  0  0  0  0  0  0  0  0  0  0
    8.9660   -7.2713   18.2276 C   0  0  0  0  0  0  0  0  0  0  0  0
   10.3011   -5.0436   18.7687 C   0  0  0  0  0  0  0  0  0  0  0  0
    7.1575   -5.5404   15.1837 O   0  0  0  0  0  0  0  0  0  0  0  0
    9.0363   -5.3770   16.5759 C   0  0  0  0  0  0  0  0  0  0  0  0
    0.3786  -10.1527   17.0743 C   0  0  0  0  0  0  0  0  0  0  0  0
    9.4019   -8.0503   17.6853 C   0  0  0  0  0  0  0  0  0  0  0  0
    4.1158   -7.9267   15.8538 C   0  0  0  0  0  0  0  0  0  0  0  0
   10.4213   -3.5490   16.4994 C   0  0  0  0  0  0  0  0  0  0  0  0
    1.6830  -11.0285   18.7983 C   0  0  0  0  0  0  0  0  0  0  0  0
    6.8580   -8.2202   17.8249 C   0  0  0  0  0  0  0  0  0  0  0  0
    5.8017   -9.4556   16.2506 C   0  0  0  0  0  0  0  0  0  0  0  0
   10.9541   -4.0258   18.9719 C   0  0  0  0  0  0  0  0  0  0  0  0
   11.0464   -4.9985   20.9554 N   0  0  0  0  0  0  0  0  0  0  0  0
    3.7433   -8.9176   16.6878 C   0  0  0  0  0  0  0  0  0  0  0  0
    7.9880   -6.0759   15.8386 C   0  0  0  0  0  0  0  0  0  0  0  0
    2.7018  -10.4841   18.2177 C   0  0  0  0  0  0  0  0  0  0  0  0
   11.4207   -3.8656   20.3633 N   0  0  0  0  0  0  0  0  0  0  0  0
    1.3873   -9.5236   16.4777 C   0  0  0  0  0  0  0  0  0  0  0  0
    2.6037   -9.6166   17.0976 C   0  0  0  0  0  0  0  0  0  0  0  0
   10.9875   -3.4252   17.7061 C   0  0  0  0  0  0  0  0  0  0  0  0
    9.4290   -4.2426   15.9571 C   0  0  0  0  0  0  0  0  0  0  0  0
    7.8815   -7.4377   15.7013 N   0  0  0  0  0  0  0  0  0  0  0  0
   10.2976   -5.5583   20.1573 C   0  0  0  0  0  0  0  0  0  0  0  0
  1  7  1  0
  1  8  4  0
  1 10  4  0
  2 11  4  0
  2 15  4  0
  3  6  1  0
  3 16  1  0
  4  5  1  0
  4 13  1  0
  4 17  1  0
  5 16  1  0
  5 28  1  0
  6 17  1  0
  6 20  1  0
  7 12  1  0
  8 18  4  0
  8 29  4  0
  9 21  2  0
 10 21  1  0
 10 27  4  0
 11 24  4  0
 13 20  1  0
 14 26  4  0
 14 27  4  0
 15 22  4  0
 18 23  4  0
 18 26  4  0
 19 23  4  0
 19 29  4  0
 20 25  1  0
 21 28  1  0
 22 25  4  0
 24 25  4  0
M  END
$$$$

 Created by Python create_sdf_string function

 29 30  0  0  0  0  0  0  0  0999 V2000
    9.4807   -5.5501   17.6757 C   0  0  0  0  0  0  0  0  0  0  0  0
    0.2426  -11.3028   18.3073 C   0  0  0  0  0  0  0  0  0  0  0  0
    6.0082   -7.9894   15.9577 F   0  0  0  0  0  0  0  0  0  0  0  0
    6.5349   -7.7444   16.4528 C   0  0  0  0  0  0  0  0  0  0  0  0
   10.0985   -4.7764   19.0639 P   0  0  0  0  0  0  0  0  0  0  0  0
    6.3689   -6.1083   15.0613 O   0  0  0  0  0  0  0  0  0  0  0  0
    9.1511   -5.5714   16.2124 C   0  0  0  0  0  0  0  0  0  0  0  0
    1.1989   -9.9471   17.2771 C   0  0  0  0  0  0  0  0  0  0  0  0
    9.1988   -7.5952   17.3968 C   0  0  0  0  0  0  0  0  0  0  0  0
    4.3813   -7.2686   15.3123 C   0  0  0  0  0  0  0  0  0  0  0  0
   10.9258   -3.4476   16.2600 C   0  0  0  0  0  0  0  0  0  0  0  0
    7.3053   -7.7991   18.4586 S   0  0  0  0  0  0  0  0  0  0  0  0
    5.8379   -9.8705   15.8602 C   0  0  0  0  0  0  0  0  0  0  0  0
   11.1953   -5.2121   21.2017 P   0  0  0  0  0  0  0  0  0  0  0  0
    3.5808   -9.0456   17.0209 C   0  0  0  0  0  0  0  0  0  0  0  0
    7.8585   -5.7595   15.8839 C   0  0  0  0  0  0  0  0  0  0  0  0
    2.2537  -10.6931   18.4754 C   0  0  0  0  0  0  0  0  0  0  0  0
    2.1953   -9.6670   17.3974 C   0  0  0  0  0  0  0  0  0  0  0  0
   11.0834   -3.6000   17.7346 C   0  0  0  0  0  0  0  0  0  0  0  0
    9.3079   -4.5293   15.7361 C   0  0  0  0  0  0  0  0  0  0  0  0
    5.8168   -8.3139   18.3468 He  0  0  0  0  0  0  0  0  0  0  0  0
    4.8930   -8.8504   17.0002 He  0  0  0  0  0  0  0  0  0  0  0  0
    8.5495   -7.1422   18.3695 He  0  0  0  0  0  0  0  0  0  0  0  0
    2.1436  -11.0278   18.4776 He  0  0  0  0  0  0  0  0  0  0  0  0
   10.9295   -4.4229   19.3699 He  0  0  0  0  0  0  0  0  0  0  0  0
   10.7030   -3.2779   20.5350 He  0  0  0  0  0  0  0  0  0  0  0  0
    1.1543  -10.0183   16.4231 He  0  0  0  0  0  0  0  0  0  0  0  0
    7.4683   -7.0667   15.5096 He  0  0  0  0  0  0  0  0  0  0  0  0
   10.3464   -5.5880   19.8410 He  0  0  0  0  0  0  0  0  0  0  0  0
  1  5  4  0
  1 17  1  0
  2  8  4  0
  2 17  3  0
  3  7  2  0
  3 10  1  0
  3 13  1  0
  3 14  4  0
  4  5  2  0
  4  9  2  0
  4 12  1  0
  5 10  4  0
  5 20  3  0
  6 16  2  0
  6 18  2  0
  7 16  1  0
  7 19  2  0
  7 20  4  0
  8  9  1  0
  8 11  3  0
  8 15  1  0
  8 17  2  0
  8 18  3  0
 10 15  1  0
 10 17  4  0
 11 18  3  0
 11 20  4  0
 15 18  1  0
 18 20  4  0
 19 20  4  0
M  END
$$$$

 Created by Python create_sdf_string function

 29 35  0  0  0  0  0  0  0  0999 V2000
    9.4657   -5.6546   17.8021 C   0  0  0  0  0  0  0  0  0  0  0  0
    0.5024  -11.1853   18.2338 C   0  0  0  0  0  0  0  0  0  0  0  0
    5.7645   -8.5337   18.3211 C   0  0  0  0  0  0  0  0  0  0  0  0
    5.6425   -8.2683   15.7938 C   0  0  0  0  0  0  0  0  0  0  0  0
    6.7555   -7.7344   16.4596 C   0  0  0  0  0  0  0  0  0  0  0  0
    4.7544   -9.2619   17.1287 N   0  0  0  0  0  0  0  0  0  0  0  0
    8.7826   -6.9888   18.2733 C   0  0  0  0  0  0  0  0  0  0  0  0
   10.2278   -5.0640   18.8364 C   0  0  0  0  0  0  0  0  0  0  0  0
    6.6383   -5.7516   14.9621 O   0  0  0  0  0  0  0  0  0  0  0  0
    9.1304   -5.2550   16.5577 C   0  0  0  0  0  0  0  0  0  0  0  0
    0.3739  -10.4757   17.2066 C   0  0  0  0  0  0  0  0  0  0  0  0
    8.9722   -8.1145   17.5961 C   0  0  0  0  0  0  0  0  0  0  0  0
    4.3068   -7.7029   15.7115 C   0  0  0  0  0  0  0  0  0  0  0  0
   10.6788   -3.5298   16.5719 C   0  0  0  0  0  0  0  0  0  0  0  0
    1.7350  -11.2255   18.8449 C   0  0  0  0  0  0  0  0  0  0  0  0
    6.8977   -8.2040   17.8405 C   0  0  0  0  0  0  0  0  0  0  0  0
    5.6381   -9.6357   16.1158 C   0  0  0  0  0  0  0  0  0  0  0  0
   10.8283   -3.8495   18.9288 C   0  0  0  0  0  0  0  0  0  0  0  0
   10.8156   -4.8256   21.0145 C   0  0  0  0  0  0  0  0  0  0  0  0
    3.6173   -8.8977   16.7510 C   0  0  0  0  0  0  0  0  0  0  0  0
    8.0533   -6.0523   15.7938 C   0  0  0  0  0  0  0  0  0  0  0  0
    2.6852  -10.6813   18.3546 C   0  0  0  0  0  0  0  0  0  0  0  0
   11.1368   -3.7155   20.3112 N   0  0  0  0  0  0  0  0  0  0  0  0
    1.2845   -9.6868   16.7188 C   0  0  0  0  0  0  0  0  0  0  0  0
    2.5061   -9.7416   17.2788 C   0  0  0  0  0  0  0  0  0  0  0  0
   10.9379   -3.2993   17.7980 C   0  0  0  0  0  0  0  0  0  0  0  0
    9.7259   -4.2258   15.9903 C   0  0  0  0  0  0  0  0  0  0  0  0
    7.5184   -6.9710   15.7096 C   0  0  0  0  0  0  0  0  0  0  0  0
   10.3190   -5.7133   20.1194 C   0  0  0  0  0  0  0  0  0  0  0  0
  1  7  1  0
  1  8  4  0
  1 10  4  0
  2 11  4  0
  2 15  4  0
  3  6  1  0
  3 16  1  0
  4  5  1  0
  4 13  1  0
  4 17  1  0
  5 16  1  0
  5 28  1  0
  6 17  1  0
  6 20  1  0
  7 12  1  0
  8 18  4  0
  8 29  4  0
  9 21  2  0
  9 28  2  0
 10 21  1  0
 10 27  4  0
 11 24  4  0
 12 16  1  0
 13 20  1  0
 14 26  4  0
 14 27  4  0
 15 22  4  0
 18 23  4  0
 18 26  4  0
 19 23  4  0
 19 29  4  0
 20 25  1  0
 21 28  1  0
 22 25  4  0
 24 25  4  0
M  END
$$$$

 Created by Python create_sdf_string function

 29 53  0  0  0  0  0  0  0  0999 V2000
    9.6643   -5.4467   17.8326 C   0  0  0  0  0  0  0  0  0  0  0  0
    0.2458  -11.0292   18.6129 C   0  0  0  0  0  0  0  0  0  0  0  0
    5.4442   -8.1424   18.6759 C   0  0  0  0  0  0  0  0  0  0  0  0
    5.8282   -8.0901   16.3886 C   0  0  0  0  0  0  0  0  0  0  0  0
    6.6016   -6.9498   16.6602 C   0  0  0  0  0  0  0  0  0  0  0  0
    4.6940   -9.5613   17.5701 N   0  0  0  0  0  0  0  0  0  0  0  0
    8.9934   -7.4161   18.3671 C   0  0  0  0  0  0  0  0  0  0  0  0
   10.1551   -5.0634   18.3439 C   0  0  0  0  0  0  0  0  0  0  0  0
    6.6021   -5.8249   15.0896 O   0  0  0  0  0  0  0  0  0  0  0  0
    9.6260   -4.5179   17.1472 C   0  0  0  0  0  0  0  0  0  0  0  0
    9.0610   -8.0190   18.0081 C   0  0  0  0  0  0  0  0  0  0  0  0
    4.3753   -7.5088   15.3135 C   0  0  0  0  0  0  0  0  0  0  0  0
   10.5984   -3.8746   17.1045 C   0  0  0  0  0  0  0  0  0  0  0  0
    1.9245  -11.7756   18.0078 C   0  0  0  0  0  0  0  0  0  0  0  0
    7.3133   -7.6064   17.1095 C   0  0  0  0  0  0  0  0  0  0  0  0
    6.3336   -9.7690   16.1033 C   0  0  0  0  0  0  0  0  0  0  0  0
   10.6082   -3.0862   18.9894 C   0  0  0  0  0  0  0  0  0  0  0  0
   10.9103   -4.0755   21.4267 C   0  0  0  0  0  0  0  0  0  0  0  0
    3.5747   -8.5412   16.9402 C   0  0  0  0  0  0  0  0  0  0  0  0
    7.5777   -6.0941   15.7072 C   0  0  0  0  0  0  0  0  0  0  0  0
   11.3066   -3.4976   20.7810 N   0  0  0  0  0  0  0  0  0  0  0  0
    1.0747  -10.1838   16.5814 C   0  0  0  0  0  0  0  0  0  0  0  0
    2.3050  -10.1286   17.3016 C   0  0  0  0  0  0  0  0  0  0  0  0
   10.5824   -3.0242   18.0800 C   0  0  0  0  0  0  0  0  0  0  0  0
   10.9404   -5.9037   19.9165 C   0  0  0  0  0  0  0  0  0  0  0  0
    0.1448  -11.0546   16.9686 He  0  0  0  0  0  0  0  0  0  0  0  0
    2.5213  -10.7062   18.0364 He  0  0  0  0  0  0  0  0  0  0  0  0
    9.5247   -3.1169   16.5447 He  0  0  0  0  0  0  0  0  0  0  0  0
    7.4796   -7.2728   15.5797 He  0  0  0  0  0  0  0  0  0  0  0  0
  1  4  2  0
  1  7  1  0
  1 10  4  0
  1 24  2  0
  2 14  4  0
  2 19  3  0
  2 21  3  0
  3  4  3  0
  3  6  1  0
  3 15  1  0
  3 19  1  0
  4 16  1  0
  4 24  2  0
  5 11  3  0
  5 13  1  0
  5 15  1  0
  5 22  4  0
  6 10  1  0
  6 19  2  0
  6 20  2  0
  6 22  4  0
  7 13  2  0
  7 14  2  0
  7 18  3  0
  7 21  1  0
  8 17  4  0
  8 23  1  0
  8 25  3  0
  9 15  2  0
 10 13  1  0
 10 14  3  0
 10 15  4  0
 10 18  2  0
 10 20  3  0
 10 22  1  0
 11 13  2  0
 11 15  1  0
 12 23  3  0
 13 16  1  0
 13 19  3  0
 13 21  3  0
 13 24  4  0
 15 16  2  0
 15 25  3  0
 17 21  4  0
 18 20  3  0
 18 21  4  0
 18 23  4  0
 18 25  4  0
 19 23  1  0
 19 25  3  0
 21 22  4  0
 22 23  4  0
M  END
$$$$

 Created by Python create_sdf_string function

 29 34  0  0  0  0  0  0  0  0999 V2000
    9.6970   -5.6416   17.9061 C   0  0  0  0  0  0  0  0  0  0  0  0
    0.4254  -11.4951   18.1048 C   0  0  0  0  0  0  0  0  0  0  0  0
    5.7636   -8.4323   18.1650 C   0  0  0  0  0  0  0  0  0  0  0  0
    5.7533   -8.2337   15.8104 C   0  0  0  0  0  0  0  0  0  0  0  0
    6.8242   -7.2993   16.5953 C   0  0  0  0  0  0  0  0  0  0  0  0
    4.6001   -9.1776   17.4625 N   0  0  0  0  0  0  0  0  0  0  0  0
    9.3816   -7.1389   18.1045 C   0  0  0  0  0  0  0  0  0  0  0  0
   10.3124   -4.9870   18.9486 C   0  0  0  0  0  0  0  0  0  0  0  0
    6.5450   -6.0079   14.9016 O   0  0  0  0  0  0  0  0  0  0  0  0
    9.3076   -4.9994   16.8378 C   0  0  0  0  0  0  0  0  0  0  0  0
    0.2011  -10.6927   17.1441 C   0  0  0  0  0  0  0  0  0  0  0  0
    8.5410   -7.9452   17.7367 C   0  0  0  0  0  0  0  0  0  0  0  0
    4.4090   -7.7761   15.7063 C   0  0  0  0  0  0  0  0  0  0  0  0
   10.5054   -3.1350   16.9244 C   0  0  0  0  0  0  0  0  0  0  0  0
    1.5675  -11.4924   18.7640 C   0  0  0  0  0  0  0  0  0  0  0  0
    7.0406   -7.9888   17.7188 C   0  0  0  0  0  0  0  0  0  0  0  0
    6.2080   -9.4450   16.1161 C   0  0  0  0  0  0  0  0  0  0  0  0
   10.7954   -3.6142   19.1069 C   0  0  0  0  0  0  0  0  0  0  0  0
   10.9919   -4.5312   21.1034 C   0  0  0  0  0  0  0  0  0  0  0  0
    3.4875   -8.9983   16.8165 C   0  0  0  0  0  0  0  0  0  0  0  0
    8.2331   -5.9155   15.9574 C   0  0  0  0  0  0  0  0  0  0  0  0
    2.5969  -10.7324   18.3141 C   0  0  0  0  0  0  0  0  0  0  0  0
   11.1503   -3.3852   20.4083 N   0  0  0  0  0  0  0  0  0  0  0  0
    1.1506   -9.8590   16.6468 C   0  0  0  0  0  0  0  0  0  0  0  0
    2.3841   -9.8592   17.2404 C   0  0  0  0  0  0  0  0  0  0  0  0
   10.8554   -2.8475   18.0756 C   0  0  0  0  0  0  0  0  0  0  0  0
    9.7048   -3.8657   16.3055 C   0  0  0  0  0  0  0  0  0  0  0  0
    7.1884   -6.8498   15.7616 C   0  0  0  0  0  0  0  0  0  0  0  0
   10.4948   -5.4900   20.2615 C   0  0  0  0  0  0  0  0  0  0  0  0
  1  7  1  0
  1  8  4  0
  1 10  4  0
  2 11  4  0
  2 15  4  0
  3  6  1  0
  3 16  1  0
  4  5  1  0
  4 13  1  0
  4 17  1  0
  5 16  1  0
  5 28  1  0
  6 17  1  0
  6 20  1  0
  7 12  1  0
  8 18  4  0
  8 29  4  0
  9 28  1  0
 10 21  1  0
 10 27  4  0
 11 24  4  0
 12 16  1  0
 13 20  1  0
 14 26  4  0
 14 27  4  0
 15 22  4  0
 18 23  4  0
 18 26  4  0
 19 23  4  0
 19 29  4  0
 20 25  1  0
 21 28  1  0
 22 25  4  0
 24 25  4  0
M  END
$$$$

 Created by Python create_sdf_string function

 29 41  0  0  0  0  0  0  0  0999 V2000
    9.6106   -6.0949   17.5428 F   0  0  0  0  0  0  0  0  0  0  0  0
   -0.3413  -11.6207   17.9670 C   0  0  0  0  0  0  0  0  0  0  0  0
    6.0425   -8.6295   18.3430 C   0  0  0  0  0  0  0  0  0  0  0  0
    6.3317   -8.5727   15.4896 N   0  0  0  0  0  0  0  0  0  0  0  0
    6.6136   -7.7687   16.8453 C   0  0  0  0  0  0  0  0  0  0  0  0
    4.5845   -8.8966   17.8052 N   0  0  0  0  0  0  0  0  0  0  0  0
    9.3620   -6.7230   18.4515 C   0  0  0  0  0  0  0  0  0  0  0  0
   10.5006   -4.8213   19.1154 O   0  0  0  0  0  0  0  0  0  0  0  0
    6.8048   -5.2977   15.0765 O   0  0  0  0  0  0  0  0  0  0  0  0
    9.1733   -4.5310   16.8031 C   0  0  0  0  0  0  0  0  0  0  0  0
    8.6775   -7.7999   17.5857 C   0  0  0  0  0  0  0  0  0  0  0  0
    5.0432   -7.7585   15.3684 S   0  0  0  0  0  0  0  0  0  0  0  0
   10.7621   -3.0831   17.2256 C   0  0  0  0  0  0  0  0  0  0  0  0
    1.4334  -11.1952   19.2551 S   0  0  0  0  0  0  0  0  0  0  0  0
    6.9963   -8.0438   17.7602 C   0  0  0  0  0  0  0  0  0  0  0  0
    6.3877   -9.3418   16.0689 C   0  0  0  0  0  0  0  0  0  0  0  0
   11.1737   -3.6939   19.4487 C   0  0  0  0  0  0  0  0  0  0  0  0
    7.8838   -5.9150   16.3832 C   0  0  0  0  0  0  0  0  0  0  0  0
   11.0944   -4.1276   20.5798 N   0  0  0  0  0  0  0  0  0  0  0  0
    1.1569   -9.8600   16.9349 F   0  0  0  0  0  0  0  0  0  0  0  0
    2.3385   -9.7876   17.6572 C   0  0  0  0  0  0  0  0  0  0  0  0
   10.7717   -2.0193   17.6368 C   0  0  0  0  0  0  0  0  0  0  0  0
    9.9932   -3.7570   16.4862 C   0  0  0  0  0  0  0  0  0  0  0  0
   11.2056   -5.0229   20.1909 S   0  0  0  0  0  0  0  0  0  0  0  0
    0.2587  -11.0001   16.9711 He  0  0  0  0  0  0  0  0  0  0  0  0
   10.9448   -3.9367   21.0166 He  0  0  0  0  0  0  0  0  0  0  0  0
    3.5616   -8.9913   16.4940 He  0  0  0  0  0  0  0  0  0  0  0  0
    2.9340  -11.5878   18.0978 He  0  0  0  0  0  0  0  0  0  0  0  0
    6.8017   -6.6195   15.0972 He  0  0  0  0  0  0  0  0  0  0  0  0
  1  7  1  0
  1  8  4  0
  1 21  4  0
  2  3  4  0
  2  6  1  0
  2  7  1  0
  2 14  4  0
  3 15  1  0
  3 16  4  0
  3 17  4  0
  4  5  1  0
  4 12  1  0
  4 14  4  0
  4 16  1  0
  4 22  3  0
  5  8  3  0
  5 15  1  0
  6 11  4  0
  6 15  4  0
  7 11  1  0
  7 12  1  0
  7 19  4  0
  8 13  3  0
  8 17  4  0
  8 24  4  0
  9 18  2  0
  9 20  4  0
 10 15  2  0
 10 22  3  0
 10 23  4  0
 11 15  1  0
 11 21  3  0
 13 16  2  0
 13 22  4  0
 13 23  3  0
 15 19  2  0
 15 22  2  0
 16 20  3  0
 17 22  4  0
 18 19  3  0
 20 21  1  0
M  END
$$$$

 Created by Python create_sdf_string function

 29 33  0  0  0  0  0  0  0  0999 V2000
    9.7211   -5.7063   18.1148 C   0  0  0  0  0  0  0  0  0  0  0  0
    0.2950  -11.4663   18.1766 C   0  0  0  0  0  0  0  0  0  0  0  0
    5.9211   -8.6251   18.1339 C   0  0  0  0  0  0  0  0  0  0  0  0
    5.8876   -8.4478   15.7061 C   0  0  0  0  0  0  0  0  0  0  0  0
    6.6299   -7.6323   16.3999 C   0  0  0  0  0  0  0  0  0  0  0  0
    4.6122   -8.9956   17.7883 N   0  0  0  0  0  0  0  0  0  0  0  0
    9.4124   -7.1239   18.3294 C   0  0  0  0  0  0  0  0  0  0  0  0
   10.4296   -4.8560   18.9848 C   0  0  0  0  0  0  0  0  0  0  0  0
    7.0568   -5.4601   15.2260 O   0  0  0  0  0  0  0  0  0  0  0  0
    9.2895   -5.1192   16.9636 C   0  0  0  0  0  0  0  0  0  0  0  0
    0.1750  -10.6887   17.1085 C   0  0  0  0  0  0  0  0  0  0  0  0
    8.5486   -7.9436   17.7594 C   0  0  0  0  0  0  0  0  0  0  0  0
    4.5684   -8.1714   15.7026 C   0  0  0  0  0  0  0  0  0  0  0  0
   10.6658   -3.0606   16.9322 C   0  0  0  0  0  0  0  0  0  0  0  0
    1.4883  -11.5223   18.9344 C   0  0  0  0  0  0  0  0  0  0  0  0
    7.0756   -7.9177   17.7475 C   0  0  0  0  0  0  0  0  0  0  0  0
    6.3899   -9.6430   15.9074 C   0  0  0  0  0  0  0  0  0  0  0  0
   10.8715   -3.5001   19.1347 C   0  0  0  0  0  0  0  0  0  0  0  0
   11.0748   -4.4310   21.1200 C   0  0  0  0  0  0  0  0  0  0  0  0
    3.6369   -9.1510   16.8738 C   0  0  0  0  0  0  0  0  0  0  0  0
    8.1646   -5.8631   16.2105 C   0  0  0  0  0  0  0  0  0  0  0  0
    2.5293  -10.7776   18.4781 C   0  0  0  0  0  0  0  0  0  0  0  0
   11.0919   -3.3120   20.4533 N   0  0  0  0  0  0  0  0  0  0  0  0
    1.2306   -9.9715   16.6306 C   0  0  0  0  0  0  0  0  0  0  0  0
    2.4629   -9.9477   17.3186 C   0  0  0  0  0  0  0  0  0  0  0  0
   11.1083   -2.5793   18.0892 C   0  0  0  0  0  0  0  0  0  0  0  0
    9.8566   -3.9218   16.5896 C   0  0  0  0  0  0  0  0  0  0  0  0
    7.3819   -6.5167   15.7095 C   0  0  0  0  0  0  0  0  0  0  0  0
   10.7485   -5.3948   20.3241 C   0  0  0  0  0  0  0  0  0  0  0  0
  1  7  1  0
  1  8  4  0
  1 10  4  0
  2 11  4  0
  2 15  4  0
  3  6  1  0
  3 16  1  0
  4  5  1  0
  4 13  1  0
  4 17  1  0
  5 16  1  0
  5 28  1  0
  6 20  1  0
  7 12  1  0
  8 18  4  0
  8 29  4  0
  9 28  1  0
 10 21  1  0
 10 27  4  0
 11 24  4  0
 12 16  1  0
 13 20  1  0
 14 26  4  0
 14 27  4  0
 15 22  4  0
 18 23  4  0
 18 26  4  0
 19 23  4  0
 19 29  4  0
 20 25  1  0
 21 28  1  0
 22 25  4  0
 24 25  4  0
M  END
$$$$

 Created by Python create_sdf_string function

 29 42  0  0  0  0  0  0  0  0999 V2000
    9.7271   -5.3166   18.4012 C   0  0  0  0  0  0  0  0  0  0  0  0
    0.0320  -11.4653   18.2397 C   0  0  0  0  0  0  0  0  0  0  0  0
    5.7390   -8.6453   18.2900 C   0  0  0  0  0  0  0  0  0  0  0  0
    6.9951   -8.0234   16.6181 C   0  0  0  0  0  0  0  0  0  0  0  0
    5.2260   -9.1656   17.7642 N   0  0  0  0  0  0  0  0  0  0  0  0
   10.0436   -7.2047   17.9126 C   0  0  0  0  0  0  0  0  0  0  0  0
   10.5265   -5.4443   19.3096 C   0  0  0  0  0  0  0  0  0  0  0  0
    6.5291   -5.5753   15.3332 P   0  0  0  0  0  0  0  0  0  0  0  0
    9.3665   -5.2432   17.2207 C   0  0  0  0  0  0  0  0  0  0  0  0
    0.4674  -10.1116   16.4973 C   0  0  0  0  0  0  0  0  0  0  0  0
    4.4130   -7.6709   15.0802 C   0  0  0  0  0  0  0  0  0  0  0  0
   10.9885   -2.7443   17.0192 C   0  0  0  0  0  0  0  0  0  0  0  0
    1.5553  -11.3540   18.9131 C   0  0  0  0  0  0  0  0  0  0  0  0
    6.6496  -10.1484   15.2026 F   0  0  0  0  0  0  0  0  0  0  0  0
   10.8340   -3.3873   19.1287 C   0  0  0  0  0  0  0  0  0  0  0  0
   11.0423   -5.0376   21.5894 C   0  0  0  0  0  0  0  0  0  0  0  0
    3.7968   -9.0069   17.0379 C   0  0  0  0  0  0  0  0  0  0  0  0
    8.3481   -5.7502   16.1066 C   0  0  0  0  0  0  0  0  0  0  0  0
    3.2304  -10.4795   18.2150 Cl  0  0  0  0  0  0  0  0  0  0  0  0
   11.4792   -3.0527   20.4862 N   0  0  0  0  0  0  0  0  0  0  0  0
    2.3896   -9.9238   16.9837 O   0  0  0  0  0  0  0  0  0  0  0  0
   10.5192   -2.5691   17.7771 C   0  0  0  0  0  0  0  0  0  0  0  0
    9.5498   -4.6237   16.0727 C   0  0  0  0  0  0  0  0  0  0  0  0
    7.7141   -6.9566   15.2906 C   0  0  0  0  0  0  0  0  0  0  0  0
   10.7095   -5.3440   20.6834 N   0  0  0  0  0  0  0  0  0  0  0  0
    5.6454   -9.1651   15.5574 He  0  0  0  0  0  0  0  0  0  0  0  0
    8.2651   -7.9632   17.5804 He  0  0  0  0  0  0  0  0  0  0  0  0
    7.4719   -8.0955   17.5675 He  0  0  0  0  0  0  0  0  0  0  0  0
    1.1189  -10.4755   16.4092 He  0  0  0  0  0  0  0  0  0  0  0  0
  1  6  1  0
  1  9  4  0
  1 12  2  0
  2 10  4  0
  2 13  4  0
  3  5  1  0
  3  6  3  0
  3  8  3  0
  3 21  2  0
  3 23  3  0
  4  9  2  0
  4 15  2  0
  4 24  1  0
  5 17  1  0
  5 18  4  0
  7  8  1  0
  7 15  4  0
  7 17  1  0
  7 18  3  0
  9 18  4  0
  9 20  4  0
 10 24  3  0
 11 13  1  0
 11 17  1  0
 11 23  3  0
 11 24  3  0
 12 14  2  0
 12 22  4  0
 12 23  4  0
 13 17  1  0
 13 18  3  0
 15 20  4  0
 15 22  4  0
 16 25  4  0
 17 21  1  0
 17 22  4  0
 18 19  4  0
 18 21  1  0
 18 24  1  0
 20 24  1  0
 21 25  1  0
 22 24  2  0
M  END
$$$$

 Created by Python create_sdf_string function

 29 33  0  0  0  0  0  0  0  0999 V2000
    9.8201   -5.7863   18.1850 C   0  0  0  0  0  0  0  0  0  0  0  0
    0.3805  -11.2261   18.0297 C   0  0  0  0  0  0  0  0  0  0  0  0
    5.8875   -8.6571   18.1377 C   0  0  0  0  0  0  0  0  0  0  0  0
    5.8526   -8.6526   15.5139 C   0  0  0  0  0  0  0  0  0  0  0  0
    6.7828   -7.9066   16.1398 C   0  0  0  0  0  0  0  0  0  0  0  0
    4.8628   -9.1467   17.6113 N   0  0  0  0  0  0  0  0  0  0  0  0
    9.5488   -7.2186   18.3927 C   0  0  0  0  0  0  0  0  0  0  0  0
   10.3969   -5.0004   19.1325 C   0  0  0  0  0  0  0  0  0  0  0  0
    6.6816   -5.9370   15.0953 O   0  0  0  0  0  0  0  0  0  0  0  0
    9.3862   -5.2842   17.0190 C   0  0  0  0  0  0  0  0  0  0  0  0
    0.3870  -10.5196   16.8789 C   0  0  0  0  0  0  0  0  0  0  0  0
    8.5436   -8.0065   17.7952 C   0  0  0  0  0  0  0  0  0  0  0  0
    4.4193   -8.4054   15.5818 C   0  0  0  0  0  0  0  0  0  0  0  0
   10.5787   -3.1834   16.8824 C   0  0  0  0  0  0  0  0  0  0  0  0
    1.4674  -11.2997   18.7925 C   0  0  0  0  0  0  0  0  0  0  0  0
    7.2263   -8.2625   17.5304 C   0  0  0  0  0  0  0  0  0  0  0  0
    6.3977   -9.8255   15.3261 C   0  0  0  0  0  0  0  0  0  0  0  0
   10.8437   -3.6722   19.1022 C   0  0  0  0  0  0  0  0  0  0  0  0
   11.0607   -4.5084   21.2159 C   0  0  0  0  0  0  0  0  0  0  0  0
    3.7960   -9.1330   16.8074 C   0  0  0  0  0  0  0  0  0  0  0  0
    8.4522   -6.0782   16.2824 C   0  0  0  0  0  0  0  0  0  0  0  0
    2.6172  -10.6926   18.3443 C   0  0  0  0  0  0  0  0  0  0  0  0
   11.2071   -3.3761   20.4833 N   0  0  0  0  0  0  0  0  0  0  0  0
    1.4663   -9.8083   16.4708 C   0  0  0  0  0  0  0  0  0  0  0  0
    2.5558   -9.8804   17.2045 C   0  0  0  0  0  0  0  0  0  0  0  0
   11.0255   -2.8447   18.0608 C   0  0  0  0  0  0  0  0  0  0  0  0
    9.7458   -4.1326   16.4427 C   0  0  0  0  0  0  0  0  0  0  0  0
    7.5135   -6.6950   15.7261 C   0  0  0  0  0  0  0  0  0  0  0  0
   10.5985   -5.5177   20.4720 N   0  0  0  0  0  0  0  0  0  0  0  0
  1  7  1  0
  1  8  4  0
  1 10  4  0
  2 11  4  0
  2 15  4  0
  3  6  1  0
  3 16  1  0
  4  5  1  0
  4 13  1  0
  4 17  1  0
  5 16  1  0
  5 28  1  0
  6 20  1  0
  7 12  1  0
  8 18  4  0
  8 29  4  0
  9 28  2  0
 10 21  1  0
 10 27  4  0
 11 24  4  0
 12 16  1  0
 13 20  1  0
 14 26  4  0
 14 27  4  0
 15 22  4  0
 18 23  4  0
 18 26  4  0
 19 23  4  0
 19 29  4  0
 20 25  1  0
 21 28  1  0
 22 25  4  0
 24 25  4  0
M  END
$$$$

 Created by Python create_sdf_string function

 29 57  0  0  0  0  0  0  0  0999 V2000
   -0.0509  -11.5093   18.3518 C   0  0  0  0  0  0  0  0  0  0  0  0
    6.0769   -8.9767   18.0646 C   0  0  0  0  0  0  0  0  0  0  0  0
    6.1294   -8.3995   15.6636 C   0  0  0  0  0  0  0  0  0  0  0  0
    6.8657   -7.4711   16.1614 C   0  0  0  0  0  0  0  0  0  0  0  0
   10.1928   -6.5901   18.6749 C   0  0  0  0  0  0  0  0  0  0  0  0
   10.0822   -4.7574   19.2722 C   0  0  0  0  0  0  0  0  0  0  0  0
    7.2764   -5.8716   15.0392 O   0  0  0  0  0  0  0  0  0  0  0  0
    9.2209   -5.4035   17.1908 F   0  0  0  0  0  0  0  0  0  0  0  0
    8.7342   -7.4981   17.6689 C   0  0  0  0  0  0  0  0  0  0  0  0
    4.3348   -8.4405   15.4105 C   0  0  0  0  0  0  0  0  0  0  0  0
   10.5791   -3.2440   16.6516 C   0  0  0  0  0  0  0  0  0  0  0  0
    1.6293  -11.2722   18.8551 C   0  0  0  0  0  0  0  0  0  0  0  0
    7.2328   -8.5660   17.0078 C   0  0  0  0  0  0  0  0  0  0  0  0
    6.0729  -10.1896   15.6254 C   0  0  0  0  0  0  0  0  0  0  0  0
   10.6878   -4.0192   19.2566 C   0  0  0  0  0  0  0  0  0  0  0  0
   11.9894   -4.4395   21.2506 C   0  0  0  0  0  0  0  0  0  0  0  0
    3.7720   -8.7353   16.6651 C   0  0  0  0  0  0  0  0  0  0  0  0
    8.8114   -6.1893   16.3578 C   0  0  0  0  0  0  0  0  0  0  0  0
    3.4815  -10.6660   18.1155 N   0  0  0  0  0  0  0  0  0  0  0  0
   11.0813   -3.1942   19.9345 N   0  0  0  0  0  0  0  0  0  0  0  0
    0.9390   -9.4932   17.0756 Cl  0  0  0  0  0  0  0  0  0  0  0  0
    2.4914   -9.7431   16.6301 C   0  0  0  0  0  0  0  0  0  0  0  0
   11.2506   -2.8280   18.0752 C   0  0  0  0  0  0  0  0  0  0  0  0
    9.8561   -4.0088   16.7034 C   0  0  0  0  0  0  0  0  0  0  0  0
   10.8400   -5.6494   20.3165 N   0  0  0  0  0  0  0  0  0  0  0  0
    9.7963   -6.0216   18.4353 He  0  0  0  0  0  0  0  0  0  0  0  0
    5.1763   -9.4595   17.9831 He  0  0  0  0  0  0  0  0  0  0  0  0
    1.1645  -10.4295   17.0017 He  0  0  0  0  0  0  0  0  0  0  0  0
    7.9585   -6.9234   16.0084 He  0  0  0  0  0  0  0  0  0  0  0  0
  1  6  2  0
  1 12  4  0
  1 14  4  0
  1 16  2  0
  1 17  1  0
  1 19  2  0
  2 12  2  0
  2 13  2  0
  2 15  2  0
  3  4  4  0
  3 10  1  0
  3 19  2  0
  4  8  2  0
  4 13  1  0
  4 21  1  0
  5  7  3  0
  5  9  1  0
  5 23  1  0
  6 20  3  0
  7  9  4  0
  7 11  3  0
  7 16  3  0
  7 22  1  0
  8  9  2  0
  8 12  3  0
  8 16  3  0
  8 21  3  0
  8 24  4  0
  8 25  4  0
  9 11  1  0
  9 19  3  0
  9 22  3  0
 10 12  3  0
 10 17  1  0
 10 18  4  0
 11 20  2  0
 11 23  4  0
 12 18  1  0
 12 19  2  0
 12 25  3  0
 13 16  3  0
 13 19  3  0
 13 23  3  0
 14 19  2  0
 14 20  3  0
 15 20  4  0
 15 23  4  0
 15 25  2  0
 16 20  4  0
 17 22  1  0
 19 24  4  0
 20 23  2  0
 21 22  4  0
 21 25  1  0
 22 23  1  0
 22 25  3  0
 23 25  1  0
M  END
$$$$

 Created by Python create_sdf_string function

 29 34  0  0  0  0  0  0  0  0999 V2000
    9.9548   -5.8482   18.4188 C   0  0  0  0  0  0  0  0  0  0  0  0
    0.6094  -11.2154   18.1777 C   0  0  0  0  0  0  0  0  0  0  0  0
    6.1147   -8.8503   18.0363 C   0  0  0  0  0  0  0  0  0  0  0  0
    5.8651   -8.4730   15.4226 C   0  0  0  0  0  0  0  0  0  0  0  0
    6.9134   -7.7506   16.1188 C   0  0  0  0  0  0  0  0  0  0  0  0
    4.9174   -9.0903   17.8471 C   0  0  0  0  0  0  0  0  0  0  0  0
    9.6472   -7.2521   18.6900 C   0  0  0  0  0  0  0  0  0  0  0  0
   10.5585   -5.0347   19.2164 C   0  0  0  0  0  0  0  0  0  0  0  0
    7.1085   -5.8328   15.0889 O   0  0  0  0  0  0  0  0  0  0  0  0
    9.4848   -5.4156   17.1715 C   0  0  0  0  0  0  0  0  0  0  0  0
    0.4706  -10.3424   17.2254 C   0  0  0  0  0  0  0  0  0  0  0  0
    8.6763   -7.8483   17.7201 C   0  0  0  0  0  0  0  0  0  0  0  0
    4.3631   -8.3648   15.7026 C   0  0  0  0  0  0  0  0  0  0  0  0
   10.5509   -3.2153   16.8325 C   0  0  0  0  0  0  0  0  0  0  0  0
    1.7766  -11.3817   18.7736 C   0  0  0  0  0  0  0  0  0  0  0  0
    7.3177   -8.3075   17.3884 C   0  0  0  0  0  0  0  0  0  0  0  0
    6.1283   -9.9942   15.3242 C   0  0  0  0  0  0  0  0  0  0  0  0
   10.9471   -3.6823   19.0618 C   0  0  0  0  0  0  0  0  0  0  0  0
   11.3736   -4.3433   21.1402 C   0  0  0  0  0  0  0  0  0  0  0  0
    3.8889   -8.9975   16.8218 N   0  0  0  0  0  0  0  0  0  0  0  0
    8.6645   -6.4840   16.6304 N   0  0  0  0  0  0  0  0  0  0  0  0
    2.8070  -10.6463   18.3349 N   0  0  0  0  0  0  0  0  0  0  0  0
   11.4691   -3.2812   20.3447 N   0  0  0  0  0  0  0  0  0  0  0  0
    1.4748   -9.6525   16.6738 C   0  0  0  0  0  0  0  0  0  0  0  0
    2.6962   -9.7580   17.2398 C   0  0  0  0  0  0  0  0  0  0  0  0
   10.9840   -2.7904   18.0549 C   0  0  0  0  0  0  0  0  0  0  0  0
    9.8389   -4.2171   16.5732 C   0  0  0  0  0  0  0  0  0  0  0  0
    7.5607   -6.5959   15.8530 C   0  0  0  0  0  0  0  0  0  0  0  0
   10.8239   -5.4631   20.5534 N   0  0  0  0  0  0  0  0  0  0  0  0
  1  7  1  0
  1  8  4  0
  1 10  4  0
  2 11  4  0
  2 15  4  0
  3  6  1  0
  3 16  1  0
  4  5  1  0
  4 13  1  0
  4 17  1  0
  5 16  1  0
  5 28  1  0
  6 20  1  0
  7 12  1  0
  8 18  4  0
  8 29  4  0
  9 28  2  0
 10 21  1  0
 10 27  4  0
 11 24  4  0
 12 16  1  0
 12 21  1  0
 13 20  1  0
 14 26  4  0
 14 27  4  0
 15 22  4  0
 18 23  4  0
 18 26  4  0
 19 23  4  0
 19 29  4  0
 20 25  1  0
 21 28  1  0
 22 25  4  0
 24 25  4  0
M  END
$$$$

 Created by Python create_sdf_string function

 29 59  0  0  0  0  0  0  0  0999 V2000
    6.6924   -8.7392   17.7357 C   0  0  0  0  0  0  0  0  0  0  0  0
    7.1324   -7.9120   16.4151 C   0  0  0  0  0  0  0  0  0  0  0  0
    9.6025   -6.7519   18.7461 C   0  0  0  0  0  0  0  0  0  0  0  0
   10.5868   -4.9864   19.3470 C   0  0  0  0  0  0  0  0  0  0  0  0
    7.1449   -5.8971   14.8939 O   0  0  0  0  0  0  0  0  0  0  0  0
    9.2763   -5.1919   16.8917 C   0  0  0  0  0  0  0  0  0  0  0  0
    0.3928  -10.1543   16.8435 C   0  0  0  0  0  0  0  0  0  0  0  0
    7.9785   -7.8113   17.7022 C   0  0  0  0  0  0  0  0  0  0  0  0
    4.5773   -8.3447   15.9535 P   0  0  0  0  0  0  0  0  0  0  0  0
   11.5087   -3.1714   16.5082 C   0  0  0  0  0  0  0  0  0  0  0  0
    8.0352   -8.3194   17.3482 C   0  0  0  0  0  0  0  0  0  0  0  0
    6.1016  -10.0818   15.4258 C   0  0  0  0  0  0  0  0  0  0  0  0
   10.7060   -3.8480   19.1158 C   0  0  0  0  0  0  0  0  0  0  0  0
   11.8790   -4.4050   20.6068 C   0  0  0  0  0  0  0  0  0  0  0  0
    3.3259   -8.9828   17.0288 N   0  0  0  0  0  0  0  0  0  0  0  0
    8.7734   -6.3988   16.8290 N   0  0  0  0  0  0  0  0  0  0  0  0
    2.8115  -10.5407   18.3373 N   0  0  0  0  0  0  0  0  0  0  0  0
   11.8711   -3.5364   20.4251 N   0  0  0  0  0  0  0  0  0  0  0  0
    1.6951   -9.5690   16.5334 C   0  0  0  0  0  0  0  0  0  0  0  0
    2.4600  -10.0463   17.1547 C   0  0  0  0  0  0  0  0  0  0  0  0
   10.9130   -2.6200   18.0023 C   0  0  0  0  0  0  0  0  0  0  0  0
    9.7099   -3.8604   16.1187 C   0  0  0  0  0  0  0  0  0  0  0  0
    7.6469   -6.3320   16.1363 C   0  0  0  0  0  0  0  0  0  0  0  0
   10.9739   -5.7025   20.7997 N   0  0  0  0  0  0  0  0  0  0  0  0
    9.7483   -5.5346   18.2787 He  0  0  0  0  0  0  0  0  0  0  0  0
    0.7649  -11.5045   18.0007 He  0  0  0  0  0  0  0  0  0  0  0  0
    5.8552   -8.8351   15.5112 He  0  0  0  0  0  0  0  0  0  0  0  0
    4.7689   -9.0326   17.8958 He  0  0  0  0  0  0  0  0  0  0  0  0
    1.3688  -11.8389   18.2739 He  0  0  0  0  0  0  0  0  0  0  0  0
  1  5  2  0
  1 11  1  0
  1 24  1  0
  2  3  2  0
  2  6  3  0
  2 11  1  0
  2 15  4  0
  2 19  3  0
  2 20  4  0
  2 21  3  0
  3  5  2  0
  3  6  4  0
  3 10  1  0
  3 12  4  0
  3 13  2  0
  4 18  4  0
  4 19  1  0
  4 24  4  0
  5  6  2  0
  5  9  2  0
  5 16  1  0
  5 17  1  0
  5 23  2  0
  6 16  1  0
  6 18  1  0
  6 22  4  0
  7 14  3  0
  7 15  4  0
  7 19  4  0
  8  9  2  0
  8 11  1  0
  8 14  2  0
  8 16  1  0
  8 20  1  0
  9 11  1  0
  9 15  1  0
  9 17  1  0
 10 11  3  0
 10 16  1  0
 10 21  4  0
 10 22  4  0
 10 23  3  0
 11 17  2  0
 11 21  2  0
 12 18  3  0
 13 16  1  0
 13 18  4  0
 13 20  4  0
 13 21  4  0
 14 23  3  0
 14 24  4  0
 15 20  1  0
 16 23  1  0
 17 20  4  0
 17 23  4  0
 17 24  4  0
 18 22  4  0
 19 20  4  0
 22 24  1  0
M  END
$$$$

 Created by Python create_sdf_string function

 29 34  0  0  0  0  0  0  0  0999 V2000
    9.9282   -5.7209   18.3677 C   0  0  0  0  0  0  0  0  0  0  0  0
    0.4910  -11.2178   17.8214 C   0  0  0  0  0  0  0  0  0  0  0  0
    6.3061   -8.8727   17.9563 C   0  0  0  0  0  0  0  0  0  0  0  0
    5.7789   -8.4944   15.4727 C   0  0  0  0  0  0  0  0  0  0  0  0
    6.9261   -7.8314   16.0087 C   0  0  0  0  0  0  0  0  0  0  0  0
    4.9923   -9.0382   17.9723 C   0  0  0  0  0  0  0  0  0  0  0  0
    9.5269   -7.0842   18.6573 C   0  0  0  0  0  0  0  0  0  0  0  0
   10.6705   -4.9521   19.2091 C   0  0  0  0  0  0  0  0  0  0  0  0
    7.0296   -5.7091   15.0715 O   0  0  0  0  0  0  0  0  0  0  0  0
    9.4441   -5.3400   17.1718 C   0  0  0  0  0  0  0  0  0  0  0  0
    0.4412  -10.3030   16.8477 C   0  0  0  0  0  0  0  0  0  0  0  0
    8.5474   -7.4651   17.6865 C   0  0  0  0  0  0  0  0  0  0  0  0
    4.3882   -8.4089   15.8256 C   0  0  0  0  0  0  0  0  0  0  0  0
   10.6736   -3.2611   16.7487 C   0  0  0  0  0  0  0  0  0  0  0  0
    1.5873  -11.4139   18.5710 C   0  0  0  0  0  0  0  0  0  0  0  0
    7.4508   -8.3955   17.2986 C   0  0  0  0  0  0  0  0  0  0  0  0
    6.0715   -9.9964   15.3372 C   0  0  0  0  0  0  0  0  0  0  0  0
   11.1431   -3.6710   18.9812 C   0  0  0  0  0  0  0  0  0  0  0  0
   11.5884   -4.3887   21.0826 C   0  0  0  0  0  0  0  0  0  0  0  0
    3.9335   -9.0702   17.0024 N   0  0  0  0  0  0  0  0  0  0  0  0
    8.5212   -6.3534   16.7850 N   0  0  0  0  0  0  0  0  0  0  0  0
    2.6695  -10.6995   18.2615 N   0  0  0  0  0  0  0  0  0  0  0  0
   11.7092   -3.3503   20.2797 N   0  0  0  0  0  0  0  0  0  0  0  0
    1.5304   -9.5750   16.5692 C   0  0  0  0  0  0  0  0  0  0  0  0
    2.7145   -9.7793   17.2700 C   0  0  0  0  0  0  0  0  0  0  0  0
   11.1987   -2.8644   17.9296 C   0  0  0  0  0  0  0  0  0  0  0  0
    9.8647   -4.2777   16.4573 C   0  0  0  0  0  0  0  0  0  0  0  0
    7.5069   -6.4970   15.8489 C   0  0  0  0  0  0  0  0  0  0  0  0
   10.9850   -5.4319   20.5621 N   0  0  0  0  0  0  0  0  0  0  0  0
  1  7  1  0
  1  8  4  0
  1 10  4  0
  2 11  4  0
  2 15  4  0
  3  6  1  0
  3 16  1  0
  4  5  1  0
  4 13  1  0
  4 17  1  0
  5 16  1  0
  5 28  1  0
  6 20  1  0
  7 12  1  0
  8 18  4  0
  8 29  4  0
  9 28  2  0
 10 21  1  0
 10 27  4  0
 11 24  4  0
 12 16  1  0
 12 21  1  0
 13 20  1  0
 14 26  4  0
 14 27  4  0
 15 22  4  0
 18 23  4  0
 18 26  4  0
 19 23  4  0
 19 29  4  0
 20 25  1  0
 21 28  1  0
 22 25  4  0
 24 25  4  0
M  END
$$$$

 Created by Python create_sdf_string function

 29 26  0  0  0  0  0  0  0  0999 V2000
    9.6662   -5.3317   18.3102 C   0  0  0  0  0  0  0  0  0  0  0  0
    0.2275  -11.2983   17.4182 C   0  0  0  0  0  0  0  0  0  0  0  0
    5.9433   -8.5717   15.4752 Br  0  0  0  0  0  0  0  0  0  0  0  0
    6.8781   -8.4877   16.4987 C   0  0  0  0  0  0  0  0  0  0  0  0
    4.7931   -9.1447   18.3829 C   0  0  0  0  0  0  0  0  0  0  0  0
    9.7026   -6.7702   18.5740 C   0  0  0  0  0  0  0  0  0  0  0  0
    7.1620   -5.7020   15.0928 O   0  0  0  0  0  0  0  0  0  0  0  0
    0.5240  -10.3337   16.8016 C   0  0  0  0  0  0  0  0  0  0  0  0
    8.4355   -6.7672   18.0601 C   0  0  0  0  0  0  0  0  0  0  0  0
   10.7886   -3.0993   17.1690 Cl  0  0  0  0  0  0  0  0  0  0  0  0
    7.6273   -8.6073   17.1885 C   0  0  0  0  0  0  0  0  0  0  0  0
    6.2144  -10.0362   15.6935 C   0  0  0  0  0  0  0  0  0  0  0  0
   11.2017   -3.2900   19.0705 C   0  0  0  0  0  0  0  0  0  0  0  0
   12.1447   -4.5945   20.9720 C   0  0  0  0  0  0  0  0  0  0  0  0
    8.5738   -6.5424   17.0628 N   0  0  0  0  0  0  0  0  0  0  0  0
   11.9416   -3.2558   20.3849 S   0  0  0  0  0  0  0  0  0  0  0  0
    1.7283   -9.6362   16.7313 C   0  0  0  0  0  0  0  0  0  0  0  0
    2.8287  -10.1491   16.9458 C   0  0  0  0  0  0  0  0  0  0  0  0
   10.3937   -4.1249   16.6057 C   0  0  0  0  0  0  0  0  0  0  0  0
   11.1386   -5.4774   20.7988 N   0  0  0  0  0  0  0  0  0  0  0  0
    6.0376   -8.5295   17.9606 He  0  0  0  0  0  0  0  0  0  0  0  0
   10.8553   -5.1888   19.3065 He  0  0  0  0  0  0  0  0  0  0  0  0
    9.8012   -5.3317   17.2025 He  0  0  0  0  0  0  0  0  0  0  0  0
    4.4547   -8.7533   16.0118 He  0  0  0  0  0  0  0  0  0  0  0  0
    1.5818  -11.9060   18.6813 He  0  0  0  0  0  0  0  0  0  0  0  0
    3.6972   -9.3436   17.1074 He  0  0  0  0  0  0  0  0  0  0  0  0
    2.8924  -10.4005   18.2257 He  0  0  0  0  0  0  0  0  0  0  0  0
   10.5485   -2.3566   18.2229 He  0  0  0  0  0  0  0  0  0  0  0  0
    7.6713   -6.9193   16.1069 He  0  0  0  0  0  0  0  0  0  0  0  0
  1  6  1  0
  1 11  2  0
  1 13  3  0
  2  8  2  0
  2 16  1  0
  3  7  3  0
  3  8  3  0
  3 12  1  0
  4  8  2  0
  4 11  1  0
  5  8  3  0
  5 11  2  0
  6  9  1  0
  6 15  1  0
  7  9  4  0
  8 17  4  0
  8 20  2  0
  9 11  1  0
  9 15  1  0
 11 17  4  0
 12 19  3  0
 13 16  4  0
 14 15  3  0
 14 16  2  0
 14 20  2  0
 17 18  1  0
M  END
$$$$

 Created by Python create_sdf_string function

 29 34  0  0  0  0  0  0  0  0999 V2000
   10.0300   -5.7289   18.5484 C   0  0  0  0  0  0  0  0  0  0  0  0
    0.4285  -11.2454   17.7571 C   0  0  0  0  0  0  0  0  0  0  0  0
    6.1512   -8.5340   18.1605 C   0  0  0  0  0  0  0  0  0  0  0  0
    5.8494   -8.5445   15.5942 C   0  0  0  0  0  0  0  0  0  0  0  0
    7.0033   -8.0846   16.1134 C   0  0  0  0  0  0  0  0  0  0  0  0
    5.0380   -9.1523   18.0753 C   0  0  0  0  0  0  0  0  0  0  0  0
    9.5108   -6.9963   18.8166 C   0  0  0  0  0  0  0  0  0  0  0  0
   10.7329   -4.9491   19.2927 C   0  0  0  0  0  0  0  0  0  0  0  0
    7.0269   -5.9498   15.1776 O   0  0  0  0  0  0  0  0  0  0  0  0
    9.5560   -5.3319   17.2864 C   0  0  0  0  0  0  0  0  0  0  0  0
    0.4729  -10.3381   16.7793 C   0  0  0  0  0  0  0  0  0  0  0  0
    8.4533   -7.2958   17.9520 C   0  0  0  0  0  0  0  0  0  0  0  0
    4.4636   -8.6191   15.8744 C   0  0  0  0  0  0  0  0  0  0  0  0
   10.7083   -3.0663   16.9487 C   0  0  0  0  0  0  0  0  0  0  0  0
    1.5120  -11.5020   18.5406 C   0  0  0  0  0  0  0  0  0  0  0  0
    7.4177   -8.3626   17.5376 C   0  0  0  0  0  0  0  0  0  0  0  0
    6.2270   -9.9751   15.6315 C   0  0  0  0  0  0  0  0  0  0  0  0
   11.1759   -3.5928   19.1852 C   0  0  0  0  0  0  0  0  0  0  0  0
   11.8242   -4.4718   21.2207 C   0  0  0  0  0  0  0  0  0  0  0  0
    4.0303   -9.2785   17.0605 N   0  0  0  0  0  0  0  0  0  0  0  0
    8.4831   -6.4079   16.7597 N   0  0  0  0  0  0  0  0  0  0  0  0
    2.6421  -10.8332   18.3227 C   0  0  0  0  0  0  0  0  0  0  0  0
   11.8241   -3.3266   20.4110 N   0  0  0  0  0  0  0  0  0  0  0  0
    1.6161   -9.6444   16.5291 C   0  0  0  0  0  0  0  0  0  0  0  0
    2.7718   -9.8932   17.3010 C   0  0  0  0  0  0  0  0  0  0  0  0
   11.1244   -2.6804   18.1607 N   0  0  0  0  0  0  0  0  0  0  0  0
   10.0291   -4.1515   16.6858 C   0  0  0  0  0  0  0  0  0  0  0  0
    7.4916   -6.6913   15.9211 C   0  0  0  0  0  0  0  0  0  0  0  0
   11.1636   -5.4997   20.5513 N   0  0  0  0  0  0  0  0  0  0  0  0
  1  7  1  0
  1  8  4  0
  1 10  4  0
  2 11  4  0
  2 15  4  0
  3  6  1  0
  3 16  1  0
  4  5  1  0
  4 13  1  0
  4 17  1  0
  5 16  1  0
  5 28  1  0
  6 20  1  0
  7 12  1  0
  8 18  4  0
  8 29  4  0
  9 28  2  0
 10 21  1  0
 10 27  4  0
 11 24  4  0
 12 16  1  0
 12 21  1  0
 13 20  1  0
 14 26  4  0
 14 27  4  0
 15 22  4  0
 18 23  4  0
 18 26  4  0
 19 23  4  0
 19 29  4  0
 20 25  1  0
 21 28  1  0
 22 25  4  0
 24 25  4  0
M  END
$$$$

 Created by Python create_sdf_string function

 29 43  0  0  0  0  0  0  0  0999 V2000
   10.4774   -5.8581   18.4511 C   0  0  0  0  0  0  0  0  0  0  0  0
    0.3884  -11.4873   17.9597 C   0  0  0  0  0  0  0  0  0  0  0  0
    6.9840   -8.2813   15.6406 B   0  0  0  0  0  0  0  0  0  0  0  0
    9.5412   -6.7840   17.9761 N   0  0  0  0  0  0  0  0  0  0  0  0
   10.2057   -5.0624   19.4967 C   0  0  0  0  0  0  0  0  0  0  0  0
    6.8799   -6.0369   15.4067 O   0  0  0  0  0  0  0  0  0  0  0  0
    0.1940  -10.4655   16.5698 C   0  0  0  0  0  0  0  0  0  0  0  0
    8.3588   -7.2894   17.8112 C   0  0  0  0  0  0  0  0  0  0  0  0
    4.3174   -8.3879   15.9136 C   0  0  0  0  0  0  0  0  0  0  0  0
   11.0556   -3.0464   16.8763 C   0  0  0  0  0  0  0  0  0  0  0  0
    1.5224  -11.3521   17.8920 C   0  0  0  0  0  0  0  0  0  0  0  0
    7.3576   -8.1379   17.6161 C   0  0  0  0  0  0  0  0  0  0  0  0
    5.8923  -10.1924   15.0657 C   0  0  0  0  0  0  0  0  0  0  0  0
   11.4110   -3.9579   19.1330 C   0  0  0  0  0  0  0  0  0  0  0  0
   11.6516   -4.2214   21.5773 C   0  0  0  0  0  0  0  0  0  0  0  0
    4.2164   -9.3412   17.2322 N   0  0  0  0  0  0  0  0  0  0  0  0
    8.2233   -6.5552   17.3078 N   0  0  0  0  0  0  0  0  0  0  0  0
    2.9447  -11.0040   18.2525 C   0  0  0  0  0  0  0  0  0  0  0  0
   11.7033   -3.5984   21.0928 N   0  0  0  0  0  0  0  0  0  0  0  0
    2.1918   -9.7907   17.3616 C   0  0  0  0  0  0  0  0  0  0  0  0
   11.5044   -2.6703   17.9784 N   0  0  0  0  0  0  0  0  0  0  0  0
   10.1405   -3.4909   16.8002 C   0  0  0  0  0  0  0  0  0  0  0  0
    7.8151   -6.6493   15.7551 C   0  0  0  0  0  0  0  0  0  0  0  0
   10.7764   -5.4151   20.3566 N   0  0  0  0  0  0  0  0  0  0  0  0
    5.6471   -8.4635   18.4349 He  0  0  0  0  0  0  0  0  0  0  0  0
    5.8591   -8.7119   15.4748 He  0  0  0  0  0  0  0  0  0  0  0  0
    4.8660   -9.1814   17.6189 He  0  0  0  0  0  0  0  0  0  0  0  0
    9.3093   -5.2106   17.2131 He  0  0  0  0  0  0  0  0  0  0  0  0
    1.9591   -9.8866   16.6115 He  0  0  0  0  0  0  0  0  0  0  0  0
  1  2  4  0
  1  4  1  0
  1  5  4  0
  1  6  1  0
  1  7  1  0
  1 20  3  0
  2 11  4  0
  2 12  2  0
  2 19  2  0
  2 24  3  0
  3  9  4  0
  3 12  1  0
  3 21  1  0
  3 23  1  0
  4  5  2  0
  4  8  1  0
  4 22  1  0
  5 13  3  0
  5 14  4  0
  5 16  3  0
  5 24  4  0
  6  8  3  0
  6 23  2  0
  7 13  3  0
  7 18  3  0
  7 23  3  0
  8 12  1  0
  8 16  2  0
  8 17  1  0
  9 10  1  0
  9 16  1  0
 10 11  3  0
 10 22  4  0
 11 19  4  0
 11 22  4  0
 14 18  1  0
 15 19  4  0
 15 22  3  0
 15 24  4  0
 16 19  3  0
 16 20  1  0
 17 23  1  0
 18 20  3  0
M  END
$$$$

 Created by Python create_sdf_string function

 29 34  0  0  0  0  0  0  0  0999 V2000
    9.9505   -5.7350   18.4153 C   0  0  0  0  0  0  0  0  0  0  0  0
    0.4271  -11.3276   17.7211 C   0  0  0  0  0  0  0  0  0  0  0  0
    6.0556   -8.4404   18.0859 C   0  0  0  0  0  0  0  0  0  0  0  0
    5.8202   -8.5979   15.4950 C   0  0  0  0  0  0  0  0  0  0  0  0
    6.9612   -7.9773   16.0201 C   0  0  0  0  0  0  0  0  0  0  0  0
    5.0193   -9.2653   17.9903 C   0  0  0  0  0  0  0  0  0  0  0  0
    9.4983   -7.0834   18.6422 N   0  0  0  0  0  0  0  0  0  0  0  0
   10.6157   -4.9838   19.2976 C   0  0  0  0  0  0  0  0  0  0  0  0
    6.9018   -5.8350   15.1313 O   0  0  0  0  0  0  0  0  0  0  0  0
    9.4831   -5.2628   17.2391 C   0  0  0  0  0  0  0  0  0  0  0  0
    0.4900  -10.3881   16.7483 C   0  0  0  0  0  0  0  0  0  0  0  0
    8.4519   -7.3051   17.7851 C   0  0  0  0  0  0  0  0  0  0  0  0
    4.3840   -8.4662   15.8980 C   0  0  0  0  0  0  0  0  0  0  0  0
   10.8162   -3.1522   17.0613 C   0  0  0  0  0  0  0  0  0  0  0  0
    1.4662  -11.5382   18.5244 C   0  0  0  0  0  0  0  0  0  0  0  0
    7.2804   -8.3124   17.4499 C   0  0  0  0  0  0  0  0  0  0  0  0
    5.9479  -10.0567   15.1569 C   0  0  0  0  0  0  0  0  0  0  0  0
   11.1752   -3.6798   19.2149 C   0  0  0  0  0  0  0  0  0  0  0  0
   11.3145   -4.4921   21.3609 C   0  0  0  0  0  0  0  0  0  0  0  0
    3.9839   -9.2447   17.0359 N   0  0  0  0  0  0  0  0  0  0  0  0
    8.3920   -6.2981   16.7602 N   0  0  0  0  0  0  0  0  0  0  0  0
    2.6335  -10.8889   18.3025 C   0  0  0  0  0  0  0  0  0  0  0  0
   11.5934   -3.4415   20.5455 N   0  0  0  0  0  0  0  0  0  0  0  0
    1.6313   -9.6940   16.5169 C   0  0  0  0  0  0  0  0  0  0  0  0
    2.7602   -9.9213   17.2533 C   0  0  0  0  0  0  0  0  0  0  0  0
   11.3819   -2.8569   18.2342 N   0  0  0  0  0  0  0  0  0  0  0  0
    9.9467   -4.1069   16.7249 C   0  0  0  0  0  0  0  0  0  0  0  0
    7.3740   -6.5916   15.8662 C   0  0  0  0  0  0  0  0  0  0  0  0
   10.7884   -5.4917   20.6660 C   0  0  0  0  0  0  0  0  0  0  0  0
  1  7  1  0
  1  8  4  0
  1 10  4  0
  2 11  4  0
  2 15  4  0
  3  6  1  0
  3 16  1  0
  4  5  1  0
  4 13  1  0
  4 17  1  0
  5 16  1  0
  5 28  1  0
  6 20  1  0
  7 12  1  0
  8 18  4  0
  8 29  4  0
  9 28  2  0
 10 21  1  0
 10 27  4  0
 11 24  4  0
 12 16  1  0
 12 21  1  0
 13 20  1  0
 14 26  4  0
 14 27  4  0
 15 22  4  0
 18 23  4  0
 18 26  4  0
 19 23  4  0
 19 29  4  0
 20 25  1  0
 21 28  1  0
 22 25  4  0
 24 25  4  0
M  END
$$$$

 Created by Python create_sdf_string function

 29 60  0  0  0  0  0  0  0  0999 V2000
   10.4159   -5.7633   18.3709 C   0  0  0  0  0  0  0  0  0  0  0  0
    0.3228  -11.3955   17.2238 C   0  0  0  0  0  0  0  0  0  0  0  0
    6.1755   -8.5619   18.3216 C   0  0  0  0  0  0  0  0  0  0  0  0
    6.1973   -8.4260   15.3355 I   0  0  0  0  0  0  0  0  0  0  0  0
    6.8223   -7.3720   16.1614 C   0  0  0  0  0  0  0  0  0  0  0  0
    4.8952   -8.7856   17.3973 O   0  0  0  0  0  0  0  0  0  0  0  0
    9.7317   -6.7499   18.6130 N   0  0  0  0  0  0  0  0  0  0  0  0
   10.2489   -4.9763   19.1869 C   0  0  0  0  0  0  0  0  0  0  0  0
    6.9200   -5.7546   15.5554 O   0  0  0  0  0  0  0  0  0  0  0  0
    9.4004   -5.2443   17.2392 C   0  0  0  0  0  0  0  0  0  0  0  0
    0.4566  -10.1427   17.1635 N   0  0  0  0  0  0  0  0  0  0  0  0
    7.8549   -7.4390   17.5676 C   0  0  0  0  0  0  0  0  0  0  0  0
   11.1192   -3.0435   16.8536 C   0  0  0  0  0  0  0  0  0  0  0  0
    1.5510  -11.1070   18.2483 C   0  0  0  0  0  0  0  0  0  0  0  0
    7.4625   -8.0090   16.8024 C   0  0  0  0  0  0  0  0  0  0  0  0
    5.7366  -10.0568   14.8666 C   0  0  0  0  0  0  0  0  0  0  0  0
   11.6062   -3.6011   19.3764 O   0  0  0  0  0  0  0  0  0  0  0  0
   11.0818   -4.7421   21.6473 C   0  0  0  0  0  0  0  0  0  0  0  0
    4.2140   -9.1481   17.0594 N   0  0  0  0  0  0  0  0  0  0  0  0
    8.7905   -6.2250   16.8652 N   0  0  0  0  0  0  0  0  0  0  0  0
    2.5763  -10.8642   18.5345 C   0  0  0  0  0  0  0  0  0  0  0  0
   11.9087   -3.1907   20.4544 N   0  0  0  0  0  0  0  0  0  0  0  0
    1.2658   -9.4761   16.6405 C   0  0  0  0  0  0  0  0  0  0  0  0
   11.4224   -3.1078   18.3134 N   0  0  0  0  0  0  0  0  0  0  0  0
    9.7533   -3.9014   16.7213 S   0  0  0  0  0  0  0  0  0  0  0  0
    7.1938   -6.3958   16.0768 C   0  0  0  0  0  0  0  0  0  0  0  0
   10.7895   -5.5346   20.6559 C   0  0  0  0  0  0  0  0  0  0  0  0
    4.1449   -8.2690   15.9381 He  0  0  0  0  0  0  0  0  0  0  0  0
    2.3713   -9.5175   17.1263 He  0  0  0  0  0  0  0  0  0  0  0  0
  1  2  2  0
  1  7  1  0
  1  8  3  0
  1 10  4  0
  1 12  2  0
  1 14  4  0
  1 19  3  0
  2 11  4  0
  2 12  4  0
  2 14  2  0
  2 22  1  0
  3  6  1  0
  3  9  3  0
  3 10  2  0
  3 13  4  0
  3 15  1  0
  3 17  2  0
  3 18  3  0
  3 25  1  0
  4  8  1  0
  4 17  4  0
  5  6  3  0
  5  8  4  0
  5 15  1  0
  5 26  1  0
  6 11  3  0
  6 19  1  0
  6 26  3  0
  7 12  1  0
  7 15  3  0
  7 22  3  0
  8 17  4  0
  8 21  1  0
  8 23  1  0
  8 27  2  0
  9 10  1  0
  9 19  1  0
  9 20  1  0
  9 24  3  0
  9 26  2  0
 10 20  1  0
 11 23  4  0
 12 15  1  0
 12 20  1  0
 13 22  3  0
 13 24  4  0
 13 25  4  0
 14 19  1  0
 14 21  4  0
 14 27  4  0
 15 19  2  0
 17 19  3  0
 17 22  4  0
 17 24  4  0
 18 22  2  0
 18 25  1  0
 18 27  4  0
 20 25  4  0
 21 25  4  0
 22 24  2  0
M  END
$$$$

 Created by Python create_sdf_string function

 29 35  0  0  0  0  0  0  0  0999 V2000
    9.9503   -5.6948   18.4503 C   0  0  0  0  0  0  0  0  0  0  0  0
    0.3790  -11.1009   17.6756 C   0  0  0  0  0  0  0  0  0  0  0  0
    6.2070   -8.5946   18.0280 C   0  0  0  0  0  0  0  0  0  0  0  0
    5.7710   -8.2339   15.4132 C   0  0  0  0  0  0  0  0  0  0  0  0
    6.7751   -7.6098   15.9702 C   0  0  0  0  0  0  0  0  0  0  0  0
    5.0192   -8.8959   17.9146 C   0  0  0  0  0  0  0  0  0  0  0  0
    9.5466   -7.1137   18.6447 N   0  0  0  0  0  0  0  0  0  0  0  0
   10.6072   -4.9853   19.3616 C   0  0  0  0  0  0  0  0  0  0  0  0
    6.9827   -5.5267   15.2348 O   0  0  0  0  0  0  0  0  0  0  0  0
    9.4935   -5.2326   17.2905 C   0  0  0  0  0  0  0  0  0  0  0  0
    0.3891  -10.1237   16.7466 N   0  0  0  0  0  0  0  0  0  0  0  0
    8.4725   -7.3252   17.6864 C   0  0  0  0  0  0  0  0  0  0  0  0
    4.3815   -8.6746   15.6853 C   0  0  0  0  0  0  0  0  0  0  0  0
   10.8334   -3.2128   17.0525 C   0  0  0  0  0  0  0  0  0  0  0  0
    1.4796  -11.4156   18.4125 C   0  0  0  0  0  0  0  0  0  0  0  0
    7.3045   -8.2572   17.2397 C   0  0  0  0  0  0  0  0  0  0  0  0
    5.7074   -9.6748   15.1763 C   0  0  0  0  0  0  0  0  0  0  0  0
   11.1623   -3.7329   19.2387 C   0  0  0  0  0  0  0  0  0  0  0  0
   11.3335   -4.3776   21.4408 C   0  0  0  0  0  0  0  0  0  0  0  0
    3.9512   -9.0572   16.9615 N   0  0  0  0  0  0  0  0  0  0  0  0
    8.4937   -6.1828   16.8000 N   0  0  0  0  0  0  0  0  0  0  0  0
    2.6207  -10.7107   18.2123 C   0  0  0  0  0  0  0  0  0  0  0  0
   11.6031   -3.3823   20.5463 N   0  0  0  0  0  0  0  0  0  0  0  0
    1.5385   -9.4110   16.5292 C   0  0  0  0  0  0  0  0  0  0  0  0
    2.6735   -9.6904   17.2115 C   0  0  0  0  0  0  0  0  0  0  0  0
   11.3226   -2.9562   18.2800 N   0  0  0  0  0  0  0  0  0  0  0  0
   10.0003   -4.1263   16.6294 C   0  0  0  0  0  0  0  0  0  0  0  0
    7.3967   -6.3215   15.9263 C   0  0  0  0  0  0  0  0  0  0  0  0
   10.7380   -5.4442   20.7394 C   0  0  0  0  0  0  0  0  0  0  0  0
  1  7  1  0
  1  8  4  0
  1 10  4  0
  2 11  4  0
  2 15  4  0
  3  6  1  0
  3 16  1  0
  4  5  1  0
  4 13  1  0
  4 17  1  0
  5 16  1  0
  5 28  1  0
  6 20  1  0
  7 12  1  0
  8 18  4  0
  8 29  4  0
  9 28  2  0
 10 21  1  0
 10 27  4  0
 11 24  4  0
 12 16  1  0
 12 21  1  0
 13 17  1  0
 13 20  1  0
 14 26  4  0
 14 27  4  0
 15 22  4  0
 18 23  4  0
 18 26  4  0
 19 23  4  0
 19 29  4  0
 20 25  1  0
 21 28  1  0
 22 25  4  0
 24 25  4  0
M  END
$$$$

 Created by Python create_sdf_string function

 29 53  0  0  0  0  0  0  0  0999 V2000
   10.1224   -5.4208   18.3953 C   0  0  0  0  0  0  0  0  0  0  0  0
    0.6575  -10.9915   17.3646 C   0  0  0  0  0  0  0  0  0  0  0  0
    6.3163   -8.5543   17.8412 C   0  0  0  0  0  0  0  0  0  0  0  0
    6.1168   -8.3102   15.4256 C   0  0  0  0  0  0  0  0  0  0  0  0
    5.3352   -9.2853   17.9302 C   0  0  0  0  0  0  0  0  0  0  0  0
    9.3312   -6.8129   18.7896 N   0  0  0  0  0  0  0  0  0  0  0  0
   10.2115   -4.6904   19.3665 C   0  0  0  0  0  0  0  0  0  0  0  0
    7.3631   -5.2595   15.0799 O   0  0  0  0  0  0  0  0  0  0  0  0
    9.1775   -5.3765   17.2333 C   0  0  0  0  0  0  0  0  0  0  0  0
    0.8796   -9.9656   16.9758 N   0  0  0  0  0  0  0  0  0  0  0  0
    8.4788   -7.6982   17.5475 C   0  0  0  0  0  0  0  0  0  0  0  0
   10.5607   -3.5462   16.9071 N   0  0  0  0  0  0  0  0  0  0  0  0
    1.4988  -11.2232   18.3831 C   0  0  0  0  0  0  0  0  0  0  0  0
    7.2562   -8.0785   17.0283 C   0  0  0  0  0  0  0  0  0  0  0  0
    5.4224   -9.5689   15.3246 C   0  0  0  0  0  0  0  0  0  0  0  0
   11.2997   -3.7213   19.3510 C   0  0  0  0  0  0  0  0  0  0  0  0
   11.5024   -3.9699   21.6816 C   0  0  0  0  0  0  0  0  0  0  0  0
    8.2141   -6.4567   16.7546 N   0  0  0  0  0  0  0  0  0  0  0  0
    2.5528  -10.5759   17.8618 C   0  0  0  0  0  0  0  0  0  0  0  0
   11.4091   -3.2933   20.6063 N   0  0  0  0  0  0  0  0  0  0  0  0
    1.0465   -9.1734   16.6462 C   0  0  0  0  0  0  0  0  0  0  0  0
    2.6351   -9.5919   17.6827 C   0  0  0  0  0  0  0  0  0  0  0  0
   10.1544   -3.6168   16.6216 C   0  0  0  0  0  0  0  0  0  0  0  0
    7.3311   -6.4317   15.6300 C   0  0  0  0  0  0  0  0  0  0  0  0
   10.7773   -5.7769   20.9121 C   0  0  0  0  0  0  0  0  0  0  0  0
    6.6670   -7.5069   15.8533 He  0  0  0  0  0  0  0  0  0  0  0  0
    4.8857   -8.6932   15.8211 He  0  0  0  0  0  0  0  0  0  0  0  0
    3.9649   -9.6154   17.1135 He  0  0  0  0  0  0  0  0  0  0  0  0
   11.5904   -2.9218   18.2622 He  0  0  0  0  0  0  0  0  0  0  0  0
  1  6  1  0
  1  7  4  0
  1  9  4  0
  1 12  3  0
  1 20  3  0
  1 22  1  0
  2  5  1  0
  2 10  4  0
  2 25  2  0
  3  4  2  0
  3  5  1  0
  3 11  3  0
  3 12  1  0
  3 14  1  0
  3 15  4  0
  3 17  1  0
  4 12  3  0
  4 15  1  0
  4 17  3  0
  4 23  2  0
  5  9  1  0
  5 10  3  0
  5 18  1  0
  5 25  3  0
  6  7  2  0
  6 11  1  0
  7  9  3  0
  7 12  3  0
  7 15  4  0
  7 16  4  0
  7 25  4  0
  8 10  4  0
  8 19  4  0
  8 24  3  0
  8 25  1  0
  9 10  4  0
  9 18  1  0
  9 23  4  0
 11 23  4  0
 12 23  4  0
 12 24  4  0
 13 19  1  0
 14 20  4  0
 14 25  4  0
 15 18  1  0
 17 20  4  0
 17 21  1  0
 17 22  2  0
 17 24  1  0
 17 25  4  0
 18 24  1  0
 19 22  4  0
 20 21  2  0
M  END
$$$$

 Created by Python create_sdf_string function

 29 35  0  0  0  0  0  0  0  0999 V2000
    9.8415   -5.6380   18.4439 C   0  0  0  0  0  0  0  0  0  0  0  0
    0.3481  -10.9732   17.6075 C   0  0  0  0  0  0  0  0  0  0  0  0
    6.2322   -8.5819   17.8953 C   0  0  0  0  0  0  0  0  0  0  0  0
    5.7127   -8.1330   15.3626 C   0  0  0  0  0  0  0  0  0  0  0  0
    6.8708   -7.5886   15.8332 C   0  0  0  0  0  0  0  0  0  0  0  0
    5.1349   -9.3298   17.9230 C   0  0  0  0  0  0  0  0  0  0  0  0
    9.4114   -6.9886   18.6752 N   0  0  0  0  0  0  0  0  0  0  0  0
   10.4883   -4.8880   19.3522 C   0  0  0  0  0  0  0  0  0  0  0  0
    7.2102   -5.3907   15.0462 O   0  0  0  0  0  0  0  0  0  0  0  0
    9.4091   -5.2314   17.2246 C   0  0  0  0  0  0  0  0  0  0  0  0
    0.4534   -9.9439   16.7816 N   0  0  0  0  0  0  0  0  0  0  0  0
    8.4496   -7.4042   17.6506 C   0  0  0  0  0  0  0  0  0  0  0  0
    4.6322   -8.7517   15.7556 N   0  0  0  0  0  0  0  0  0  0  0  0
   10.7380   -3.2929   17.1053 C   0  0  0  0  0  0  0  0  0  0  0  0
    1.3793  -11.3836   18.3929 C   0  0  0  0  0  0  0  0  0  0  0  0
    7.3373   -8.2341   17.1101 C   0  0  0  0  0  0  0  0  0  0  0  0
    5.4967   -9.4221   15.2734 C   0  0  0  0  0  0  0  0  0  0  0  0
   11.0897   -3.5727   19.2798 C   0  0  0  0  0  0  0  0  0  0  0  0
   11.2779   -4.2431   21.4584 C   0  0  0  0  0  0  0  0  0  0  0  0
    4.0092   -9.0929   17.0338 N   0  0  0  0  0  0  0  0  0  0  0  0
    8.4834   -6.2243   16.7502 N   0  0  0  0  0  0  0  0  0  0  0  0
    2.6010  -10.7140   18.2672 C   0  0  0  0  0  0  0  0  0  0  0  0
   11.5461   -3.2182   20.5610 N   0  0  0  0  0  0  0  0  0  0  0  0
    1.6302   -9.3040   16.5929 C   0  0  0  0  0  0  0  0  0  0  0  0
    2.7525   -9.6910   17.3008 C   0  0  0  0  0  0  0  0  0  0  0  0
   11.2420   -2.8819   18.3647 C   0  0  0  0  0  0  0  0  0  0  0  0
    9.8987   -4.0963   16.6353 C   0  0  0  0  0  0  0  0  0  0  0  0
    7.5045   -6.2818   15.7747 C   0  0  0  0  0  0  0  0  0  0  0  0
   10.6507   -5.3323   20.7173 C   0  0  0  0  0  0  0  0  0  0  0  0
  1  7  1  0
  1  8  4  0
  1 10  4  0
  2 11  4  0
  2 15  4  0
  3  6  1  0
  3 16  1  0
  4  5  1  0
  4 13  1  0
  4 17  1  0
  5 16  1  0
  5 28  1  0
  6 20  1  0
  7 12  1  0
  8 18  4  0
  8 29  4  0
  9 28  2  0
 10 21  1  0
 10 27  4  0
 11 24  4  0
 12 16  1  0
 12 21  1  0
 13 17  1  0
 13 20  1  0
 14 26  4  0
 14 27  4  0
 15 22  4  0
 18 23  4  0
 18 26  4  0
 19 23  4  0
 19 29  4  0
 20 25  1  0
 21 28  1  0
 22 25  4  0
 24 25  4  0
M  END
$$$$

 Created by Python create_sdf_string function

 29 61  0  0  0  0  0  0  0  0999 V2000
    9.7649   -5.5163   18.6583 C   0  0  0  0  0  0  0  0  0  0  0  0
    0.1378  -10.8822   17.4208 C   0  0  0  0  0  0  0  0  0  0  0  0
    6.5545   -8.4826   18.0131 Br  0  0  0  0  0  0  0  0  0  0  0  0
    5.4457   -7.8975   15.3533 C   0  0  0  0  0  0  0  0  0  0  0  0
    6.8874   -7.7060   15.9834 C   0  0  0  0  0  0  0  0  0  0  0  0
    5.2484   -9.2046   18.0623 C   0  0  0  0  0  0  0  0  0  0  0  0
    9.4204   -6.9211   18.3517 Cl  0  0  0  0  0  0  0  0  0  0  0  0
   10.6228   -4.6494   19.3990 C   0  0  0  0  0  0  0  0  0  0  0  0
    8.9591   -4.8020   17.0399 C   0  0  0  0  0  0  0  0  0  0  0  0
    0.5329  -10.0572   16.7583 N   0  0  0  0  0  0  0  0  0  0  0  0
    8.8132   -7.4682   17.2363 C   0  0  0  0  0  0  0  0  0  0  0  0
    4.7583   -9.0651   15.8350 B   0  0  0  0  0  0  0  0  0  0  0  0
   10.4725   -3.0922   16.6108 C   0  0  0  0  0  0  0  0  0  0  0  0
    1.3158  -11.4000   18.4960 C   0  0  0  0  0  0  0  0  0  0  0  0
    7.6005   -8.7522   16.9415 C   0  0  0  0  0  0  0  0  0  0  0  0
    5.0966   -9.4523   15.4065 C   0  0  0  0  0  0  0  0  0  0  0  0
   11.3343   -3.8252   18.9551 C   0  0  0  0  0  0  0  0  0  0  0  0
   11.3914   -4.3135   21.2083 C   0  0  0  0  0  0  0  0  0  0  0  0
    4.3502   -9.1092   17.1500 N   0  0  0  0  0  0  0  0  0  0  0  0
    8.1919   -5.9904   16.6629 N   0  0  0  0  0  0  0  0  0  0  0  0
    2.2299  -10.6232   18.0932 C   0  0  0  0  0  0  0  0  0  0  0  0
   11.4565   -3.0159   20.7471 N   0  0  0  0  0  0  0  0  0  0  0  0
    1.4759   -9.5452   16.8398 C   0  0  0  0  0  0  0  0  0  0  0  0
    2.7834   -9.3433   17.2941 C   0  0  0  0  0  0  0  0  0  0  0  0
   11.3859   -2.9856   18.4685 C   0  0  0  0  0  0  0  0  0  0  0  0
    9.7449   -4.2981   16.3686 C   0  0  0  0  0  0  0  0  0  0  0  0
    7.4769   -6.3327   15.8335 C   0  0  0  0  0  0  0  0  0  0  0  0
   10.8825   -5.3430   20.4612 C   0  0  0  0  0  0  0  0  0  0  0  0
    7.2488   -5.1614   15.1425 He  0  0  0  0  0  0  0  0  0  0  0  0
  1  7  1  0
  1  8  4  0
  1  9  4  0
  1 12  1  0
  2  4  4  0
  2  5  1  0
  2 10  4  0
  2 26  2  0
  3  6  1  0
  3  9  1  0
  3 15  1  0
  3 24  1  0
  3 25  1  0
  3 27  2  0
  4  5  1  0
  4 12  1  0
  4 22  4  0
  5 22  4  0
  5 24  4  0
  5 27  1  0
  6 16  4  0
  6 19  1  0
  6 20  2  0
  6 24  1  0
  7 10  3  0
  7 15  3  0
  7 23  2  0
  8 17  4  0
  8 22  4  0
  8 27  1  0
  8 28  4  0
  9 20  1  0
  9 26  4  0
 10 15  3  0
 10 19  2  0
 10 20  1  0
 10 23  4  0
 11 15  1  0
 11 18  4  0
 11 20  1  0
 12 16  1  0
 12 17  1  0
 12 19  1  0
 12 24  3  0
 13 25  4  0
 13 26  4  0
 13 28  3  0
 14 19  4  0
 14 21  3  0
 15 24  4  0
 16 23  2  0
 17 19  2  0
 17 22  4  0
 17 25  4  0
 18 22  4  0
 18 26  3  0
 18 28  2  0
 19 22  3  0
 19 24  1  0
 20 27  1  0
 21 24  4  0
M  END
$$$$

 Created by Python create_sdf_string function

 29 35  0  0  0  0  0  0  0  0999 V2000
    9.8737   -5.6859   18.3742 C   0  0  0  0  0  0  0  0  0  0  0  0
    0.2569  -10.9135   17.5698 C   0  0  0  0  0  0  0  0  0  0  0  0
    6.3766   -8.5697   17.9050 C   0  0  0  0  0  0  0  0  0  0  0  0
    5.4875   -7.9349   15.5163 C   0  0  0  0  0  0  0  0  0  0  0  0
    6.8814   -7.6765   15.6560 C   0  0  0  0  0  0  0  0  0  0  0  0
    5.1738   -9.1768   18.0158 C   0  0  0  0  0  0  0  0  0  0  0  0
    9.4815   -7.1498   18.6306 C   0  0  0  0  0  0  0  0  0  0  0  0
   10.4876   -4.8767   19.2468 C   0  0  0  0  0  0  0  0  0  0  0  0
    7.0967   -5.3930   15.1150 O   0  0  0  0  0  0  0  0  0  0  0  0
    9.3635   -5.2650   17.2298 C   0  0  0  0  0  0  0  0  0  0  0  0
    0.4305   -9.9481   16.6672 N   0  0  0  0  0  0  0  0  0  0  0  0
    8.5817   -7.5098   17.3919 C   0  0  0  0  0  0  0  0  0  0  0  0
    4.5671   -8.8705   15.7629 C   0  0  0  0  0  0  0  0  0  0  0  0
   10.6675   -3.1979   16.9670 C   0  0  0  0  0  0  0  0  0  0  0  0
    1.2529  -11.2894   18.4282 C   0  0  0  0  0  0  0  0  0  0  0  0
    7.4256   -8.4284   16.9223 C   0  0  0  0  0  0  0  0  0  0  0  0
    5.2665   -9.7017   15.2267 C   0  0  0  0  0  0  0  0  0  0  0  0
   11.0369   -3.5811   19.1812 C   0  0  0  0  0  0  0  0  0  0  0  0
   11.3699   -4.2675   21.3001 C   0  0  0  0  0  0  0  0  0  0  0  0
    4.0313   -9.1615   17.1154 N   0  0  0  0  0  0  0  0  0  0  0  0
    8.4529   -6.2563   16.7332 N   0  0  0  0  0  0  0  0  0  0  0  0
    2.4733  -10.6826   18.3018 C   0  0  0  0  0  0  0  0  0  0  0  0
   11.5727   -3.2192   20.4652 N   0  0  0  0  0  0  0  0  0  0  0  0
    1.6515   -9.3565   16.5184 C   0  0  0  0  0  0  0  0  0  0  0  0
    2.7238   -9.7113   17.3104 C   0  0  0  0  0  0  0  0  0  0  0  0
   11.2125   -2.8577   18.1063 C   0  0  0  0  0  0  0  0  0  0  0  0
    9.6909   -4.0790   16.6508 C   0  0  0  0  0  0  0  0  0  0  0  0
    7.4465   -6.2640   15.7874 C   0  0  0  0  0  0  0  0  0  0  0  0
   10.7556   -5.3168   20.6144 C   0  0  0  0  0  0  0  0  0  0  0  0
  1  7  1  0
  1  8  4  0
  1 10  4  0
  2 11  4  0
  2 15  4  0
  3  6  1  0
  3 16  1  0
  4  5  1  0
  4 13  1  0
  4 17  1  0
  5 16  1  0
  5 28  1  0
  6 20  1  0
  7 12  1  0
  8 18  4  0
  8 29  4  0
  9 28  2  0
 10 21  1  0
 10 27  4  0
 11 24  4  0
 12 16  1  0
 12 21  1  0
 13 17  1  0
 13 20  1  0
 14 26  4  0
 14 27  4  0
 15 22  4  0
 18 23  4  0
 18 26  4  0
 19 23  4  0
 19 29  4  0
 20 25  1  0
 21 28  1  0
 22 25  4  0
 24 25  4  0
M  END
$$$$

 Created by Python create_sdf_string function

 29 42  0  0  0  0  0  0  0  0999 V2000
    9.6968   -5.3195   18.6719 C   0  0  0  0  0  0  0  0  0  0  0  0
    0.1790  -10.7261   17.7651 C   0  0  0  0  0  0  0  0  0  0  0  0
    6.2819   -8.5903   17.9923 I   0  0  0  0  0  0  0  0  0  0  0  0
    6.8390   -7.5627   15.8502 C   0  0  0  0  0  0  0  0  0  0  0  0
    4.8192   -9.1463   17.8961 C   0  0  0  0  0  0  0  0  0  0  0  0
    9.6944   -7.0471   18.5447 C   0  0  0  0  0  0  0  0  0  0  0  0
   10.5137   -4.7765   19.0895 C   0  0  0  0  0  0  0  0  0  0  0  0
    6.9070   -5.4293   15.1484 O   0  0  0  0  0  0  0  0  0  0  0  0
    0.0819   -9.7737   16.4017 N   0  0  0  0  0  0  0  0  0  0  0  0
    8.5417   -7.1649   17.6761 C   0  0  0  0  0  0  0  0  0  0  0  0
    4.5891   -8.7150   15.6513 C   0  0  0  0  0  0  0  0  0  0  0  0
   10.8013   -3.1227   16.8696 C   0  0  0  0  0  0  0  0  0  0  0  0
    1.0839  -11.2737   18.2579 C   0  0  0  0  0  0  0  0  0  0  0  0
    5.2757   -9.4235   15.2573 C   0  0  0  0  0  0  0  0  0  0  0  0
   11.3488   -3.4117   19.4820 C   0  0  0  0  0  0  0  0  0  0  0  0
   11.3617   -4.4845   21.5162 C   0  0  0  0  0  0  0  0  0  0  0  0
    4.1691   -8.8805   17.1794 N   0  0  0  0  0  0  0  0  0  0  0  0
    8.0581   -6.1892   16.7399 N   0  0  0  0  0  0  0  0  0  0  0  0
    2.0794  -10.8685   18.3531 C   0  0  0  0  0  0  0  0  0  0  0  0
   11.6397   -3.1269   20.4378 N   0  0  0  0  0  0  0  0  0  0  0  0
    1.6350   -9.5213   16.3189 C   0  0  0  0  0  0  0  0  0  0  0  0
    2.5737   -9.7671   17.5026 C   0  0  0  0  0  0  0  0  0  0  0  0
   11.3664   -2.7001   18.3094 C   0  0  0  0  0  0  0  0  0  0  0  0
    9.8977   -4.3004   16.3478 C   0  0  0  0  0  0  0  0  0  0  0  0
    7.3348   -5.7072   15.8439 C   0  0  0  0  0  0  0  0  0  0  0  0
   10.9021   -5.6639   20.3772 C   0  0  0  0  0  0  0  0  0  0  0  0
    5.6127   -7.6519   15.5912 He  0  0  0  0  0  0  0  0  0  0  0  0
    9.2564   -4.8867   17.0032 He  0  0  0  0  0  0  0  0  0  0  0  0
    7.3951   -8.1242   16.9260 He  0  0  0  0  0  0  0  0  0  0  0  0
  1  4  2  0
  1  6  1  0
  1  7  4  0
  1 24  4  0
  1 25  4  0
  2  9  4  0
  2 13  4  0
  2 22  4  0
  3  5  1  0
  3 26  2  0
  4 17  4  0
  4 25  1  0
  5 16  1  0
  5 17  1  0
  5 19  4  0
  5 25  3  0
  6 10  1  0
  6 17  4  0
  7 15  4  0
  7 26  4  0
  8 19  3  0
  8 25  2  0
  9 10  2  0
  9 21  4  0
 10 13  4  0
 10 18  1  0
 11 14  1  0
 11 17  1  0
 11 20  1  0
 12 24  4  0
 15 18  2  0
 15 20  4  0
 15 23  4  0
 16 19  3  0
 16 20  4  0
 17 18  1  0
 17 22  1  0
 18 21  1  0
 18 25  3  0
 20 24  3  0
 21 22  4  0
 22 24  2  0
M  END
$$$$

 Created by Python create_sdf_string function

 29 35  0  0  0  0  0  0  0  0999 V2000
    9.8818   -5.6294   18.3385 C   0  0  0  0  0  0  0  0  0  0  0  0
    0.0935  -10.8183   17.5600 C   0  0  0  0  0  0  0  0  0  0  0  0
    6.2622   -8.6281   17.8919 C   0  0  0  0  0  0  0  0  0  0  0  0
    5.4784   -7.8563   15.5894 C   0  0  0  0  0  0  0  0  0  0  0  0
    6.8768   -7.5392   15.7786 C   0  0  0  0  0  0  0  0  0  0  0  0
    4.9876   -9.1912   17.9937 C   0  0  0  0  0  0  0  0  0  0  0  0
    9.4526   -7.0203   18.5575 C   0  0  0  0  0  0  0  0  0  0  0  0
   10.5492   -4.9080   19.2525 C   0  0  0  0  0  0  0  0  0  0  0  0
    6.9845   -5.3750   15.0917 O   0  0  0  0  0  0  0  0  0  0  0  0
    9.3721   -5.1593   17.2021 C   0  0  0  0  0  0  0  0  0  0  0  0
    0.3059   -9.9068   16.5674 N   0  0  0  0  0  0  0  0  0  0  0  0
    8.4328   -7.2972   17.5787 C   0  0  0  0  0  0  0  0  0  0  0  0
    4.4315   -8.5477   15.7980 C   0  0  0  0  0  0  0  0  0  0  0  0
   10.7681   -3.1379   17.0219 C   0  0  0  0  0  0  0  0  0  0  0  0
    1.0632  -11.1774   18.4354 C   0  0  0  0  0  0  0  0  0  0  0  0
    7.3676   -8.2222   17.0628 C   0  0  0  0  0  0  0  0  0  0  0  0
    5.3008   -9.2484   15.2446 C   0  0  0  0  0  0  0  0  0  0  0  0
   11.0759   -3.5826   19.2223 C   0  0  0  0  0  0  0  0  0  0  0  0
   11.4541   -4.3270   21.3226 C   0  0  0  0  0  0  0  0  0  0  0  0
    3.9115   -9.1301   17.0955 N   0  0  0  0  0  0  0  0  0  0  0  0
    8.3434   -6.0792   16.7430 N   0  0  0  0  0  0  0  0  0  0  0  0
    2.3220  -10.6588   18.2532 C   0  0  0  0  0  0  0  0  0  0  0  0
   11.5689   -3.2425   20.5197 N   0  0  0  0  0  0  0  0  0  0  0  0
    1.5719   -9.3753   16.4043 C   0  0  0  0  0  0  0  0  0  0  0  0
    2.6189   -9.7121   17.2361 C   0  0  0  0  0  0  0  0  0  0  0  0
   11.2311   -2.7818   18.1750 C   0  0  0  0  0  0  0  0  0  0  0  0
    9.8401   -4.0005   16.6480 C   0  0  0  0  0  0  0  0  0  0  0  0
    7.4008   -6.1448   15.8196 C   0  0  0  0  0  0  0  0  0  0  0  0
   10.8113   -5.3911   20.5967 C   0  0  0  0  0  0  0  0  0  0  0  0
  1  7  1  0
  1  8  4  0
  1 10  4  0
  2 11  4  0
  2 15  4  0
  3  6  1  0
  3 16  1  0
  4  5  1  0
  4 13  1  0
  4 17  1  0
  5 16  1  0
  5 28  1  0
  6 20  1  0
  7 12  1  0
  8 18  4  0
  8 29  4  0
  9 28  2  0
 10 21  1  0
 10 27  4  0
 11 24  4  0
 12 16  1  0
 12 21  1  0
 13 17  1  0
 13 20  1  0
 14 26  4  0
 14 27  4  0
 15 22  4  0
 18 23  4  0
 18 26  4  0
 19 23  4  0
 19 29  4  0
 20 25  1  0
 21 28  1  0
 22 25  4  0
 24 25  4  0
M  END
$$$$

 Created by Python create_sdf_string function

 29 53  0  0  0  0  0  0  0  0999 V2000
    9.6709   -5.5236   18.3006 C   0  0  0  0  0  0  0  0  0  0  0  0
   -0.0843  -11.1506   17.8266 C   0  0  0  0  0  0  0  0  0  0  0  0
    6.5358   -8.5379   18.3429 C   0  0  0  0  0  0  0  0  0  0  0  0
    5.5721   -8.0591   15.3584 C   0  0  0  0  0  0  0  0  0  0  0  0
    7.0534   -7.4111   16.0032 C   0  0  0  0  0  0  0  0  0  0  0  0
    5.3133   -8.9739   18.1278 C   0  0  0  0  0  0  0  0  0  0  0  0
    9.5342   -7.1295   18.7378 C   0  0  0  0  0  0  0  0  0  0  0  0
   10.6623   -4.6611   19.2280 C   0  0  0  0  0  0  0  0  0  0  0  0
    6.7651   -5.2667   15.0770 O   0  0  0  0  0  0  0  0  0  0  0  0
    9.4148   -5.2951   17.3153 C   0  0  0  0  0  0  0  0  0  0  0  0
   -0.2377   -9.7593   16.5661 N   0  0  0  0  0  0  0  0  0  0  0  0
    8.2365   -7.2254   17.7284 C   0  0  0  0  0  0  0  0  0  0  0  0
    4.4088   -8.4954   15.3045 C   0  0  0  0  0  0  0  0  0  0  0  0
   10.7385   -2.6574   16.7815 C   0  0  0  0  0  0  0  0  0  0  0  0
    1.0756  -10.9454   18.3811 C   0  0  0  0  0  0  0  0  0  0  0  0
    7.3284   -8.2933   17.1859 C   0  0  0  0  0  0  0  0  0  0  0  0
    5.4185   -9.5654   15.2500 C   0  0  0  0  0  0  0  0  0  0  0  0
   11.2036   -3.5590   19.2803 C   0  0  0  0  0  0  0  0  0  0  0  0
   11.5113   -4.3837   21.4307 C   0  0  0  0  0  0  0  0  0  0  0  0
    3.9949   -9.2674   17.1098 N   0  0  0  0  0  0  0  0  0  0  0  0
    7.8948   -6.1062   16.9366 N   0  0  0  0  0  0  0  0  0  0  0  0
    2.5771  -10.8740   17.9678 C   0  0  0  0  0  0  0  0  0  0  0  0
   11.6256   -3.0433   20.4309 N   0  0  0  0  0  0  0  0  0  0  0  0
    1.5090   -9.4829   16.1764 C   0  0  0  0  0  0  0  0  0  0  0  0
    2.5963   -9.5035   17.1750 C   0  0  0  0  0  0  0  0  0  0  0  0
    7.4339   -5.9693   15.9879 C   0  0  0  0  0  0  0  0  0  0  0  0
   11.0389   -2.7025   17.9707 He  0  0  0  0  0  0  0  0  0  0  0  0
    9.7037   -4.1977   16.7474 He  0  0  0  0  0  0  0  0  0  0  0  0
   10.9253   -5.3318   20.5787 He  0  0  0  0  0  0  0  0  0  0  0  0
  1  7  1  0
  1  8  3  0
  1 10  4  0
  1 14  2  0
  2  6  2  0
  2 11  4  0
  2 15  4  0
  2 20  3  0
  2 23  3  0
  3  6  1  0
  3 15  3  0
  3 16  1  0
  4  5  1  0
  4 13  2  0
  4 17  1  0
  4 24  1  0
  5 16  1  0
  5 26  4  0
  6 13  2  0
  6 20  1  0
  6 26  2  0
  7 11  1  0
  7 12  1  0
  7 26  4  0
  8 18  4  0
  9 11  2  0
  9 26  2  0
 10 12  3  0
 10 21  1  0
 10 24  1  0
 11 23  1  0
 11 24  4  0
 12 16  1  0
 12 19  1  0
 12 21  1  0
 13 17  1  0
 13 20  1  0
 14 15  4  0
 14 16  2  0
 14 21  3  0
 15 21  2  0
 15 22  4  0
 15 23  2  0
 17 21  3  0
 17 23  1  0
 18 22  1  0
 18 23  4  0
 19 23  4  0
 19 26  3  0
 21 23  4  0
 21 26  1  0
 22 25  4  0
 24 25  4  0
M  END
$$$$

 Created by Python create_sdf_string function

 29 35  0  0  0  0  0  0  0  0999 V2000
    9.8552   -5.6229   18.4449 C   0  0  0  0  0  0  0  0  0  0  0  0
    0.0453  -10.8235   17.6482 C   0  0  0  0  0  0  0  0  0  0  0  0
    6.2952   -8.5706   18.0635 C   0  0  0  0  0  0  0  0  0  0  0  0
    5.6412   -8.0477   15.4585 C   0  0  0  0  0  0  0  0  0  0  0  0
    6.8936   -7.5874   15.9155 C   0  0  0  0  0  0  0  0  0  0  0  0
    5.0053   -9.0476   17.9207 C   0  0  0  0  0  0  0  0  0  0  0  0
    9.4273   -7.0266   18.6716 C   0  0  0  0  0  0  0  0  0  0  0  0
   10.5479   -4.8615   19.2404 C   0  0  0  0  0  0  0  0  0  0  0  0
    6.9685   -5.3781   15.1583 O   0  0  0  0  0  0  0  0  0  0  0  0
    9.2983   -5.1502   17.2715 C   0  0  0  0  0  0  0  0  0  0  0  0
    0.1968   -9.9480   16.6124 N   0  0  0  0  0  0  0  0  0  0  0  0
    8.3591   -7.2769   17.7098 C   0  0  0  0  0  0  0  0  0  0  0  0
    4.2944   -8.7592   15.6631 C   0  0  0  0  0  0  0  0  0  0  0  0
   10.5770   -3.0680   16.9211 C   0  0  0  0  0  0  0  0  0  0  0  0
    1.1108  -11.2135   18.4150 C   0  0  0  0  0  0  0  0  0  0  0  0
    7.3892   -8.2313   17.2013 C   0  0  0  0  0  0  0  0  0  0  0  0
    5.4047   -9.3560   15.2383 C   0  0  0  0  0  0  0  0  0  0  0  0
   11.0446   -3.5261   19.1196 C   0  0  0  0  0  0  0  0  0  0  0  0
   11.4920   -4.2174   21.2388 C   0  0  0  0  0  0  0  0  0  0  0  0
    3.8176   -9.1220   16.9694 N   0  0  0  0  0  0  0  0  0  0  0  0
    8.3335   -6.0694   16.8467 N   0  0  0  0  0  0  0  0  0  0  0  0
    2.3290  -10.6539   18.1857 C   0  0  0  0  0  0  0  0  0  0  0  0
   11.5864   -3.1695   20.3906 N   0  0  0  0  0  0  0  0  0  0  0  0
    1.4306   -9.4200   16.3587 C   0  0  0  0  0  0  0  0  0  0  0  0
    2.5289   -9.7127   17.1493 C   0  0  0  0  0  0  0  0  0  0  0  0
   11.1266   -2.7064   18.0786 N   0  0  0  0  0  0  0  0  0  0  0  0
    9.7155   -4.0022   16.6186 C   0  0  0  0  0  0  0  0  0  0  0  0
    7.3852   -6.1838   15.9304 C   0  0  0  0  0  0  0  0  0  0  0  0
   10.8799   -5.3045   20.5866 C   0  0  0  0  0  0  0  0  0  0  0  0
  1  7  1  0
  1  8  4  0
  1 10  4  0
  2 11  4  0
  2 15  4  0
  3  6  1  0
  3 16  1  0
  4  5  1  0
  4 13  1  0
  4 17  1  0
  5 16  1  0
  5 28  1  0
  6 20  1  0
  7 12  1  0
  8 18  4  0
  8 29  4  0
  9 28  2  0
 10 21  1  0
 10 27  4  0
 11 24  4  0
 12 16  1  0
 12 21  1  0
 13 17  1  0
 13 20  1  0
 14 26  4  0
 14 27  4  0
 15 22  4  0
 18 23  4  0
 18 26  4  0
 19 23  4  0
 19 29  4  0
 20 25  1  0
 21 28  1  0
 22 25  4  0
 24 25  4  0
M  END
$$$$

 Created by Python create_sdf_string function

 29 39  0  0  0  0  0  0  0  0999 V2000
    0.1202  -10.8639   17.9391 C   0  0  0  0  0  0  0  0  0  0  0  0
    6.9756   -7.4980   16.0037 C   0  0  0  0  0  0  0  0  0  0  0  0
    4.8181   -9.0349   17.8356 C   0  0  0  0  0  0  0  0  0  0  0  0
    9.2829   -6.9751   18.7925 C   0  0  0  0  0  0  0  0  0  0  0  0
    6.9847   -5.6448   15.2350 O   0  0  0  0  0  0  0  0  0  0  0  0
    9.1255   -5.1383   17.2217 C   0  0  0  0  0  0  0  0  0  0  0  0
    0.3508   -9.8828   16.7526 N   0  0  0  0  0  0  0  0  0  0  0  0
    8.0943   -7.5437   17.6210 C   0  0  0  0  0  0  0  0  0  0  0  0
    4.4792   -8.6939   15.7964 C   0  0  0  0  0  0  0  0  0  0  0  0
   10.4588   -2.7661   16.9308 C   0  0  0  0  0  0  0  0  0  0  0  0
    7.0296   -8.2889   17.1050 C   0  0  0  0  0  0  0  0  0  0  0  0
    5.3397   -9.7353   15.3404 C   0  0  0  0  0  0  0  0  0  0  0  0
   11.2291   -3.8916   19.2077 C   0  0  0  0  0  0  0  0  0  0  0  0
   11.2703   -4.2984   21.1873 C   0  0  0  0  0  0  0  0  0  0  0  0
    3.8915   -9.2868   16.8281 S   0  0  0  0  0  0  0  0  0  0  0  0
    8.4234   -6.1523   16.9159 N   0  0  0  0  0  0  0  0  0  0  0  0
   11.6257   -3.0368   20.3856 N   0  0  0  0  0  0  0  0  0  0  0  0
    1.2561   -9.2270   16.2669 C   0  0  0  0  0  0  0  0  0  0  0  0
    2.3641   -9.5118   16.9016 C   0  0  0  0  0  0  0  0  0  0  0  0
   11.3294   -2.4606   18.0327 N   0  0  0  0  0  0  0  0  0  0  0  0
    9.4568   -3.8864   16.6855 C   0  0  0  0  0  0  0  0  0  0  0  0
    7.3043   -6.3304   15.9847 C   0  0  0  0  0  0  0  0  0  0  0  0
   10.9145   -5.3740   20.4809 C   0  0  0  0  0  0  0  0  0  0  0  0
    9.9090   -5.4336   18.4398 He  0  0  0  0  0  0  0  0  0  0  0  0
    6.0934   -9.0578   18.1034 He  0  0  0  0  0  0  0  0  0  0  0  0
    5.7463   -7.7323   15.7094 He  0  0  0  0  0  0  0  0  0  0  0  0
   11.0016   -5.2233   19.0245 He  0  0  0  0  0  0  0  0  0  0  0  0
    0.8386  -11.2112   18.4602 He  0  0  0  0  0  0  0  0  0  0  0  0
    2.4086  -10.3365   18.5736 He  0  0  0  0  0  0  0  0  0  0  0  0
  1  7  4  0
  1 19  4  0
  2 11  1  0
  2 17  1  0
  2 22  1  0
  3 15  1  0
  4  8  1  0
  4 10  3  0
  5  8  2  0
  5 16  1  0
  5 22  2  0
  6  7  3  0
  6 16  1  0
  6 19  3  0
  6 21  4  0
  7 18  4  0
  7 21  1  0
  8 11  1  0
  8 16  1  0
  9 12  1  0
  9 15  1  0
  9 17  3  0
 10 20  4  0
 10 21  4  0
 11 12  1  0
 11 13  2  0
 13 17  4  0
 13 20  4  0
 14 17  4  0
 14 23  4  0
 15 19  4  0
 16 18  3  0
 16 19  2  0
 16 21  1  0
 16 22  1  0
 18 19  4  0
 18 20  4  0
 19 23  2  0
 21 23  3  0
M  END
$$$$

 Created by Python create_sdf_string function

 29 35  0  0  0  0  0  0  0  0999 V2000
    9.8466   -5.6995   18.4084 C   0  0  0  0  0  0  0  0  0  0  0  0
    0.0276  -10.7319   17.7036 C   0  0  0  0  0  0  0  0  0  0  0  0
    6.1258   -8.9292   17.8487 C   0  0  0  0  0  0  0  0  0  0  0  0
    5.5029   -8.0147   15.5342 C   0  0  0  0  0  0  0  0  0  0  0  0
    6.7980   -7.6581   15.9234 C   0  0  0  0  0  0  0  0  0  0  0  0
    4.8042   -9.0941   17.9590 C   0  0  0  0  0  0  0  0  0  0  0  0
    9.4140   -7.0707   18.7079 C   0  0  0  0  0  0  0  0  0  0  0  0
   10.5367   -4.9039   19.2082 C   0  0  0  0  0  0  0  0  0  0  0  0
    6.9946   -5.4995   15.1170 O   0  0  0  0  0  0  0  0  0  0  0  0
    9.2611   -5.2514   17.2765 C   0  0  0  0  0  0  0  0  0  0  0  0
    0.1786   -9.9085   16.6688 N   0  0  0  0  0  0  0  0  0  0  0  0
    8.3164   -7.3922   17.7508 C   0  0  0  0  0  0  0  0  0  0  0  0
    4.4559   -8.7483   15.6517 C   0  0  0  0  0  0  0  0  0  0  0  0
   10.4674   -3.0338   16.9920 C   0  0  0  0  0  0  0  0  0  0  0  0
    1.0419  -11.0375   18.5549 C   0  0  0  0  0  0  0  0  0  0  0  0
    7.1592   -8.2767   17.2400 C   0  0  0  0  0  0  0  0  0  0  0  0
    5.3957   -9.4612   15.2622 C   0  0  0  0  0  0  0  0  0  0  0  0
   11.0564   -3.5988   19.0938 C   0  0  0  0  0  0  0  0  0  0  0  0
   11.5023   -4.2930   21.1809 C   0  0  0  0  0  0  0  0  0  0  0  0
    3.8014   -9.0828   16.9305 N   0  0  0  0  0  0  0  0  0  0  0  0
    8.3095   -6.1970   16.8596 N   0  0  0  0  0  0  0  0  0  0  0  0
    2.2857  -10.5134   18.2678 N   0  0  0  0  0  0  0  0  0  0  0  0
   11.6110   -3.2560   20.3469 N   0  0  0  0  0  0  0  0  0  0  0  0
    1.4126   -9.3758   16.3863 C   0  0  0  0  0  0  0  0  0  0  0  0
    2.4890   -9.6622   17.1870 C   0  0  0  0  0  0  0  0  0  0  0  0
   11.2059   -2.7716   18.0806 N   0  0  0  0  0  0  0  0  0  0  0  0
    9.5986   -4.0333   16.7505 C   0  0  0  0  0  0  0  0  0  0  0  0
    7.3676   -6.3333   15.9012 C   0  0  0  0  0  0  0  0  0  0  0  0
   10.9265   -5.3873   20.5330 C   0  0  0  0  0  0  0  0  0  0  0  0
  1  7  1  0
  1  8  4  0
  1 10  4  0
  2 11  4  0
  2 15  4  0
  3  6  1  0
  3 16  1  0
  4  5  1  0
  4 13  1  0
  4 17  1  0
  5 16  1  0
  5 28  1  0
  6 20  1  0
  7 12  1  0
  8 18  4  0
  8 29  4  0
  9 28  2  0
 10 21  1  0
 10 27  4  0
 11 24  4  0
 12 16  1  0
 12 21  1  0
 13 17  1  0
 13 20  1  0
 14 26  4  0
 14 27  4  0
 15 22  4  0
 18 23  4  0
 18 26  4  0
 19 23  4  0
 19 29  4  0
 20 25  1  0
 21 28  1  0
 22 25  4  0
 24 25  4  0
M  END
$$$$

 Created by Python create_sdf_string function

 29 41  0  0  0  0  0  0  0  0999 V2000
    9.8299   -5.7819   18.5885 C   0  0  0  0  0  0  0  0  0  0  0  0
   -0.0272  -11.0586   17.4155 C   0  0  0  0  0  0  0  0  0  0  0  0
    6.0268   -9.1109   17.9672 Cl  0  0  0  0  0  0  0  0  0  0  0  0
    5.2711   -8.2098   15.5718 C   0  0  0  0  0  0  0  0  0  0  0  0
    7.0544   -7.6513   15.8731 C   0  0  0  0  0  0  0  0  0  0  0  0
    4.9708   -8.9032   18.0875 C   0  0  0  0  0  0  0  0  0  0  0  0
    9.0140   -6.9395   18.6826 C   0  0  0  0  0  0  0  0  0  0  0  0
   10.4251   -4.7320   19.3535 C   0  0  0  0  0  0  0  0  0  0  0  0
    6.8691   -5.4356   14.9071 O   0  0  0  0  0  0  0  0  0  0  0  0
    9.2092   -5.3612   17.3771 C   0  0  0  0  0  0  0  0  0  0  0  0
    0.0692  -10.0494   16.6522 N   0  0  0  0  0  0  0  0  0  0  0  0
    8.3897   -7.3788   17.5050 S   0  0  0  0  0  0  0  0  0  0  0  0
    4.3121   -8.8246   16.0065 C   0  0  0  0  0  0  0  0  0  0  0  0
    1.0438  -11.1820   18.4540 C   0  0  0  0  0  0  0  0  0  0  0  0
    5.2930   -9.7437   15.3499 C   0  0  0  0  0  0  0  0  0  0  0  0
   10.8525   -3.4939   18.9873 C   0  0  0  0  0  0  0  0  0  0  0  0
   11.7269   -4.6237   21.0210 C   0  0  0  0  0  0  0  0  0  0  0  0
    3.5096   -9.1149   17.2210 N   0  0  0  0  0  0  0  0  0  0  0  0
    8.2119   -6.1857   16.6211 N   0  0  0  0  0  0  0  0  0  0  0  0
   11.6407   -3.4650   20.3096 N   0  0  0  0  0  0  0  0  0  0  0  0
    1.1926   -9.6488   16.2039 C   0  0  0  0  0  0  0  0  0  0  0  0
    2.3477   -9.6219   17.2846 C   0  0  0  0  0  0  0  0  0  0  0  0
   11.0927   -2.7971   17.8282 N   0  0  0  0  0  0  0  0  0  0  0  0
    9.6873   -4.1593   16.8471 C   0  0  0  0  0  0  0  0  0  0  0  0
    7.0456   -6.5797   15.6780 C   0  0  0  0  0  0  0  0  0  0  0  0
   10.9173   -5.3786   20.1013 C   0  0  0  0  0  0  0  0  0  0  0  0
   10.4955   -3.0434   16.9641 He  0  0  0  0  0  0  0  0  0  0  0  0
    7.2143   -8.2029   17.2352 He  0  0  0  0  0  0  0  0  0  0  0  0
    2.6009  -10.0674   17.8756 He  0  0  0  0  0  0  0  0  0  0  0  0
  1  7  1  0
  1  8  4  0
  1 10  1  0
  2 11  4  0
  3  6  2  0
  3 12  2  0
  3 14  2  0
  3 19  3  0
  4  5  1  0
  4 13  1  0
  4 15  1  0
  4 26  4  0
  5 16  1  0
  5 25  1  0
  6 14  2  0
  6 18  1  0
  7 12  1  0
  8 16  4  0
  8 18  1  0
  8 26  4  0
  9 18  2  0
  9 25  2  0
 10 13  2  0
 10 24  4  0
 11 19  1  0
 11 21  4  0
 12 17  3  0
 12 19  1  0
 12 21  1  0
 12 26  1  0
 13 15  1  0
 13 17  2  0
 15 20  4  0
 16 20  4  0
 16 23  4  0
 17 20  4  0
 17 26  4  0
 18 20  4  0
 19 25  1  0
 21 22  4  0
 22 23  2  0
M  END
$$$$

 Created by Python create_sdf_string function

 29 35  0  0  0  0  0  0  0  0999 V2000
    9.6318   -5.7364   18.4380 C   0  0  0  0  0  0  0  0  0  0  0  0
   -0.0159  -10.9902   17.5307 C   0  0  0  0  0  0  0  0  0  0  0  0
    6.1680   -8.9509   17.8494 C   0  0  0  0  0  0  0  0  0  0  0  0
    5.3583   -8.2006   15.6096 C   0  0  0  0  0  0  0  0  0  0  0  0
    6.7943   -7.7748   15.8294 C   0  0  0  0  0  0  0  0  0  0  0  0
    4.8632   -8.9707   17.9554 C   0  0  0  0  0  0  0  0  0  0  0  0
    9.1334   -7.1013   18.6556 C   0  0  0  0  0  0  0  0  0  0  0  0
   10.4920   -4.9876   19.1719 C   0  0  0  0  0  0  0  0  0  0  0  0
    6.8974   -5.6277   14.9759 O   0  0  0  0  0  0  0  0  0  0  0  0
    9.1892   -5.2803   17.1900 C   0  0  0  0  0  0  0  0  0  0  0  0
    0.1068  -10.1736   16.4867 N   0  0  0  0  0  0  0  0  0  0  0  0
    8.3383   -7.4656   17.5429 C   0  0  0  0  0  0  0  0  0  0  0  0
    4.2737   -8.7490   15.6945 C   0  0  0  0  0  0  0  0  0  0  0  0
   10.4439   -3.1203   16.9305 C   0  0  0  0  0  0  0  0  0  0  0  0
    0.9644  -11.1798   18.4022 C   0  0  0  0  0  0  0  0  0  0  0  0
    7.2071   -8.2971   17.1962 C   0  0  0  0  0  0  0  0  0  0  0  0
    5.2132   -9.5177   15.3256 C   0  0  0  0  0  0  0  0  0  0  0  0
   11.0298   -3.6640   19.0280 C   0  0  0  0  0  0  0  0  0  0  0  0
   11.6681   -4.4375   21.0449 C   0  0  0  0  0  0  0  0  0  0  0  0
    3.6912   -9.0991   17.0723 N   0  0  0  0  0  0  0  0  0  0  0  0
    8.2867   -6.2290   16.6811 N   0  0  0  0  0  0  0  0  0  0  0  0
    2.1555  -10.4760   18.1806 C   0  0  0  0  0  0  0  0  0  0  0  0
   11.6810   -3.3696   20.2401 N   0  0  0  0  0  0  0  0  0  0  0  0
    1.2739   -9.4747   16.2988 C   0  0  0  0  0  0  0  0  0  0  0  0
    2.3903   -9.6590   17.1788 C   0  0  0  0  0  0  0  0  0  0  0  0
   11.0223   -2.7716   18.1110 N   0  0  0  0  0  0  0  0  0  0  0  0
    9.6506   -4.1442   16.6421 C   0  0  0  0  0  0  0  0  0  0  0  0
    7.3130   -6.4075   15.7448 C   0  0  0  0  0  0  0  0  0  0  0  0
   10.8889   -5.4665   20.4400 C   0  0  0  0  0  0  0  0  0  0  0  0
  1  7  1  0
  1  8  4  0
  1 10  4  0
  2 11  4  0
  2 15  4  0
  3  6  2  0
  3 16  1  0
  4  5  1  0
  4 13  1  0
  4 17  1  0
  5 16  1  0
  5 28  1  0
  6 20  1  0
  7 12  1  0
  8 18  4  0
  8 29  4  0
  9 28  2  0
 10 21  1  0
 10 27  4  0
 11 24  4  0
 12 16  1  0
 12 21  1  0
 13 17  1  0
 13 20  1  0
 14 26  4  0
 14 27  4  0
 15 22  4  0
 18 23  4  0
 18 26  4  0
 19 23  4  0
 19 29  4  0
 20 25  1  0
 21 28  1  0
 22 25  4  0
 24 25  4  0
M  END
$$$$

 Created by Python create_sdf_string function

 29 48  0  0  0  0  0  0  0  0999 V2000
    9.6577   -5.7318   18.5311 C   0  0  0  0  0  0  0  0  0  0  0  0
   -0.2266  -10.7329   17.5782 N   0  0  0  0  0  0  0  0  0  0  0  0
    5.8176   -8.8985   18.1729 C   0  0  0  0  0  0  0  0  0  0  0  0
    5.6600   -8.0833   15.4944 C   0  0  0  0  0  0  0  0  0  0  0  0
    6.8058   -7.7306   15.8037 N   0  0  0  0  0  0  0  0  0  0  0  0
    4.7727   -9.5023   17.5948 Se  0  0  0  0  0  0  0  0  0  0  0  0
    9.2800   -7.2450   18.6698 C   0  0  0  0  0  0  0  0  0  0  0  0
   10.3444   -5.1010   19.3333 C   0  0  0  0  0  0  0  0  0  0  0  0
    6.8034   -5.6513   14.9034 O   0  0  0  0  0  0  0  0  0  0  0  0
    8.9731   -5.1495   17.4349 C   0  0  0  0  0  0  0  0  0  0  0  0
   -0.0924  -10.0464   16.2381 N   0  0  0  0  0  0  0  0  0  0  0  0
    8.2968   -7.2094   17.3921 C   0  0  0  0  0  0  0  0  0  0  0  0
    4.1287   -8.7913   15.7864 C   0  0  0  0  0  0  0  0  0  0  0  0
    1.0176  -11.0712   18.3231 C   0  0  0  0  0  0  0  0  0  0  0  0
    7.0151   -8.3195   17.1804 C   0  0  0  0  0  0  0  0  0  0  0  0
    5.4324   -9.5267   15.3889 C   0  0  0  0  0  0  0  0  0  0  0  0
   10.9532   -3.7264   19.0904 C   0  0  0  0  0  0  0  0  0  0  0  0
   11.5920   -4.5389   20.8920 O   0  0  0  0  0  0  0  0  0  0  0  0
    3.6830   -8.9668   17.1803 N   0  0  0  0  0  0  0  0  0  0  0  0
    8.2372   -6.3899   16.6679 N   0  0  0  0  0  0  0  0  0  0  0  0
    1.7743  -10.1292   18.3303 C   0  0  0  0  0  0  0  0  0  0  0  0
   11.7472   -3.2312   20.3382 N   0  0  0  0  0  0  0  0  0  0  0  0
    1.4950   -9.1852   16.5956 C   0  0  0  0  0  0  0  0  0  0  0  0
    2.4606   -9.8536   17.1622 C   0  0  0  0  0  0  0  0  0  0  0  0
   11.1333   -2.6798   18.6184 N   0  0  0  0  0  0  0  0  0  0  0  0
    9.6619   -4.2600   16.6044 C   0  0  0  0  0  0  0  0  0  0  0  0
    7.3057   -6.1241   15.6663 C   0  0  0  0  0  0  0  0  0  0  0  0
   10.7659   -5.5803   20.4372 C   0  0  0  0  0  0  0  0  0  0  0  0
   10.3103   -2.8237   16.9848 He  0  0  0  0  0  0  0  0  0  0  0  0
  1  7  1  0
  1  8  4  0
  1 21  2  0
  2 11  4  0
  2 14  4  0
  3  4  3  0
  3  6  2  0
  3 15  1  0
  3 18  3  0
  3 28  2  0
  4  5  1  0
  4 13  1  0
  4 16  1  0
  5 15  1  0
  5 27  1  0
  6 19  1  0
  6 24  1  0
  6 25  4  0
  7 12  2  0
  7 15  4  0
  8 16  2  0
  8 17  4  0
  8 22  4  0
  8 28  4  0
  9 21  3  0
  9 24  4  0
  9 27  2  0
 10 20  1  0
 10 26  4  0
 10 27  2  0
 11 17  1  0
 11 23  4  0
 12 15  1  0
 12 20  1  0
 13 16  1  0
 13 19  1  0
 13 27  2  0
 14 21  4  0
 14 26  1  0
 17 22  4  0
 17 27  3  0
 18 22  4  0
 18 28  4  0
 19 24  3  0
 20 26  1  0
 20 27  1  0
 23 24  4  0
 23 26  4  0
M  END
$$$$

 Created by Python create_sdf_string function

 29 35  0  0  0  0  0  0  0  0999 V2000
    9.6617   -5.8377   18.4717 C   0  0  0  0  0  0  0  0  0  0  0  0
   -0.1409  -10.7714   17.4679 N   0  0  0  0  0  0  0  0  0  0  0  0
    5.9785   -8.8109   17.8474 C   0  0  0  0  0  0  0  0  0  0  0  0
    5.3861   -8.1425   15.4181 C   0  0  0  0  0  0  0  0  0  0  0  0
    6.7263   -7.6804   15.8617 N   0  0  0  0  0  0  0  0  0  0  0  0
    4.8409   -9.4467   17.8611 C   0  0  0  0  0  0  0  0  0  0  0  0
    9.1707   -7.1923   18.6358 C   0  0  0  0  0  0  0  0  0  0  0  0
   10.4121   -5.0516   19.2591 C   0  0  0  0  0  0  0  0  0  0  0  0
    6.9272   -5.5874   14.9310 O   0  0  0  0  0  0  0  0  0  0  0  0
    9.1893   -5.3258   17.2746 C   0  0  0  0  0  0  0  0  0  0  0  0
    0.1143   -9.9369   16.4388 N   0  0  0  0  0  0  0  0  0  0  0  0
    8.2555   -7.4323   17.6066 C   0  0  0  0  0  0  0  0  0  0  0  0
    4.1957   -8.7887   15.7477 C   0  0  0  0  0  0  0  0  0  0  0  0
   10.3477   -3.0829   17.0607 C   0  0  0  0  0  0  0  0  0  0  0  0
    0.7728  -10.9799   18.4418 C   0  0  0  0  0  0  0  0  0  0  0  0
    7.1187   -8.3236   17.1800 C   0  0  0  0  0  0  0  0  0  0  0  0
    5.2369   -9.4251   15.2919 C   0  0  0  0  0  0  0  0  0  0  0  0
   10.9527   -3.7150   19.1638 C   0  0  0  0  0  0  0  0  0  0  0  0
   11.5919   -4.5203   21.1253 O   0  0  0  0  0  0  0  0  0  0  0  0
    3.6615   -9.1999   17.0639 N   0  0  0  0  0  0  0  0  0  0  0  0
    8.2414   -6.2265   16.7234 N   0  0  0  0  0  0  0  0  0  0  0  0
    2.0220  -10.4604   18.3058 C   0  0  0  0  0  0  0  0  0  0  0  0
   11.6604   -3.4302   20.3547 N   0  0  0  0  0  0  0  0  0  0  0  0
    1.3766   -9.3854   16.3085 C   0  0  0  0  0  0  0  0  0  0  0  0
    2.3569   -9.6279   17.2197 C   0  0  0  0  0  0  0  0  0  0  0  0
   10.9685   -2.7874   18.2343 N   0  0  0  0  0  0  0  0  0  0  0  0
    9.5495   -4.1142   16.7734 C   0  0  0  0  0  0  0  0  0  0  0  0
    7.2778   -6.3999   15.7610 C   0  0  0  0  0  0  0  0  0  0  0  0
   10.8617   -5.5329   20.5418 C   0  0  0  0  0  0  0  0  0  0  0  0
  1  7  1  0
  1  8  4  0
  1 10  4  0
  2 11  4  0
  2 15  4  0
  3  6  1  0
  3 16  1  0
  4  5  1  0
  4 13  1  0
  4 17  1  0
  5 16  1  0
  5 28  1  0
  6 20  1  0
  7 12  2  0
  8 18  4  0
  8 29  4  0
  9 28  2  0
 10 21  1  0
 10 27  4  0
 11 24  4  0
 12 16  1  0
 12 21  1  0
 13 17  1  0
 13 20  1  0
 14 26  4  0
 14 27  4  0
 15 22  4  0
 18 23  4  0
 18 26  4  0
 19 23  4  0
 19 29  4  0
 20 25  1  0
 21 28  1  0
 22 25  4  0
 24 25  4  0
M  END
$$$$

 Created by Python create_sdf_string function

 29 51  0  0  0  0  0  0  0  0999 V2000
    9.7249   -5.8695   18.4974 C   0  0  0  0  0  0  0  0  0  0  0  0
    0.1195  -10.6220   17.6814 N   0  0  0  0  0  0  0  0  0  0  0  0
    5.6310   -8.6158   17.7829 C   0  0  0  0  0  0  0  0  0  0  0  0
    5.3204   -8.0879   15.5339 C   0  0  0  0  0  0  0  0  0  0  0  0
    6.5569   -7.8108   15.6173 N   0  0  0  0  0  0  0  0  0  0  0  0
    5.1326   -9.3913   17.6260 C   0  0  0  0  0  0  0  0  0  0  0  0
    9.1344   -7.1657   18.5691 C   0  0  0  0  0  0  0  0  0  0  0  0
   10.3049   -5.2243   19.2859 C   0  0  0  0  0  0  0  0  0  0  0  0
    7.1382   -5.6937   14.9093 O   0  0  0  0  0  0  0  0  0  0  0  0
    9.0810   -5.3513   17.0923 C   0  0  0  0  0  0  0  0  0  0  0  0
    0.2837  -10.2610   16.3333 N   0  0  0  0  0  0  0  0  0  0  0  0
    8.3081   -7.4649   17.8799 C   0  0  0  0  0  0  0  0  0  0  0  0
    4.1487   -8.9511   15.4642 C   0  0  0  0  0  0  0  0  0  0  0  0
   10.5145   -2.9155   17.0359 C   0  0  0  0  0  0  0  0  0  0  0  0
    0.6863  -11.1478   18.4749 C   0  0  0  0  0  0  0  0  0  0  0  0
    7.0788   -8.2022   17.0379 C   0  0  0  0  0  0  0  0  0  0  0  0
    5.3332   -9.3334   15.2282 C   0  0  0  0  0  0  0  0  0  0  0  0
   11.0514   -3.6002   19.0072 C   0  0  0  0  0  0  0  0  0  0  0  0
   11.4430   -4.8545   21.3006 O   0  0  0  0  0  0  0  0  0  0  0  0
    3.7855   -8.6906   17.1993 N   0  0  0  0  0  0  0  0  0  0  0  0
    8.2250   -6.3802   17.2134 N   0  0  0  0  0  0  0  0  0  0  0  0
    1.9813  -10.2364   18.2865 C   0  0  0  0  0  0  0  0  0  0  0  0
    1.7196   -9.4512   16.2062 C   0  0  0  0  0  0  0  0  0  0  0  0
    2.0489   -9.8090   17.2252 C   0  0  0  0  0  0  0  0  0  0  0  0
   10.9299   -2.4859   18.2897 N   0  0  0  0  0  0  0  0  0  0  0  0
    9.5931   -4.0813   16.7314 C   0  0  0  0  0  0  0  0  0  0  0  0
   10.8960   -5.7581   20.1587 C   0  0  0  0  0  0  0  0  0  0  0  0
   11.6343   -3.3105   20.2556 He  0  0  0  0  0  0  0  0  0  0  0  0
    7.4240   -6.7224   16.0078 He  0  0  0  0  0  0  0  0  0  0  0  0
  1  7  1  0
  1  8  4  0
  1 10  4  0
  1 14  2  0
  1 24  1  0
  2 11  4  0
  2 15  4  0
  3 12  2  0
  3 16  1  0
  4  5  1  0
  4 12  1  0
  4 13  1  0
  4 17  1  0
  5  7  2  0
  5 16  1  0
  5 25  3  0
  6 17  3  0
  6 20  1  0
  6 21  3  0
  7 12  2  0
  7 26  4  0
  8 11  1  0
  8 16  4  0
  8 18  4  0
  8 22  3  0
  8 27  4  0
  9 10  3  0
  9 14  2  0
 10 21  1  0
 10 23  4  0
 10 26  4  0
 11 19  4  0
 11 23  4  0
 11 26  3  0
 12 16  1  0
 12 21  1  0
 13 15  2  0
 13 17  1  0
 13 20  3  0
 14 25  4  0
 14 26  4  0
 15 17  1  0
 15 19  2  0
 15 22  4  0
 18 22  4  0
 18 25  4  0
 19 24  2  0
 19 27  4  0
 20 24  1  0
 22 24  4  0
 23 24  4  0
M  END
$$$$

 Created by Python create_sdf_string function

 29 35  0  0  0  0  0  0  0  0999 V2000
    9.6894   -5.8424   18.4271 C   0  0  0  0  0  0  0  0  0  0  0  0
   -0.0571  -10.8348   17.5008 N   0  0  0  0  0  0  0  0  0  0  0  0
    5.9426   -8.5835   17.9457 C   0  0  0  0  0  0  0  0  0  0  0  0
    5.3426   -8.0955   15.4922 C   0  0  0  0  0  0  0  0  0  0  0  0
    6.7062   -7.6817   15.8623 N   0  0  0  0  0  0  0  0  0  0  0  0
    4.8678   -9.3965   17.7848 C   0  0  0  0  0  0  0  0  0  0  0  0
    9.2051   -7.2027   18.6528 C   0  0  0  0  0  0  0  0  0  0  0  0
   10.4776   -5.0779   19.2161 C   0  0  0  0  0  0  0  0  0  0  0  0
    7.1316   -5.5960   14.9419 O   0  0  0  0  0  0  0  0  0  0  0  0
    9.1718   -5.3803   17.2662 C   0  0  0  0  0  0  0  0  0  0  0  0
    0.2259  -10.1330   16.3759 N   0  0  0  0  0  0  0  0  0  0  0  0
    8.2054   -7.4136   17.6616 C   0  0  0  0  0  0  0  0  0  0  0  0
    4.2182   -8.8094   15.6167 C   0  0  0  0  0  0  0  0  0  0  0  0
   10.3326   -3.1342   17.0634 C   0  0  0  0  0  0  0  0  0  0  0  0
    0.8242  -10.9244   18.5213 C   0  0  0  0  0  0  0  0  0  0  0  0
    7.1133   -8.3674   17.1492 C   0  0  0  0  0  0  0  0  0  0  0  0
    5.2214   -9.3771   15.1893 C   0  0  0  0  0  0  0  0  0  0  0  0
   10.9562   -3.7323   19.1714 C   0  0  0  0  0  0  0  0  0  0  0  0
   11.5718   -4.6490   21.1493 C   0  0  0  0  0  0  0  0  0  0  0  0
    3.6796   -9.1138   17.0158 N   0  0  0  0  0  0  0  0  0  0  0  0
    8.2466   -6.3195   16.7915 N   0  0  0  0  0  0  0  0  0  0  0  0
    2.0496  -10.3816   18.3309 C   0  0  0  0  0  0  0  0  0  0  0  0
   11.5420   -3.5051   20.4030 N   0  0  0  0  0  0  0  0  0  0  0  0
    1.4446   -9.5702   16.1972 C   0  0  0  0  0  0  0  0  0  0  0  0
    2.3981   -9.6773   17.1819 C   0  0  0  0  0  0  0  0  0  0  0  0
   10.9802   -2.7998   18.2385 N   0  0  0  0  0  0  0  0  0  0  0  0
    9.5709   -4.1891   16.7217 C   0  0  0  0  0  0  0  0  0  0  0  0
    7.3568   -6.4388   15.8017 C   0  0  0  0  0  0  0  0  0  0  0  0
   10.8888   -5.6300   20.4756 C   0  0  0  0  0  0  0  0  0  0  0  0
  1  7  1  0
  1  8  4  0
  1 10  4  0
  2 11  4  0
  2 15  4  0
  3  6  1  0
  3 16  1  0
  4  5  1  0
  4 13  1  0
  4 17  1  0
  5 16  1  0
  5 28  1  0
  6 20  1  0
  7 12  2  0
  8 18  4  0
  8 29  4  0
  9 28  2  0
 10 21  1  0
 10 27  4  0
 11 24  4  0
 12 16  1  0
 12 21  1  0
 13 17  1  0
 13 20  1  0
 14 26  4  0
 14 27  4  0
 15 22  4  0
 18 23  4  0
 18 26  4  0
 19 23  4  0
 19 29  4  0
 20 25  1  0
 21 28  1  0
 22 25  4  0
 24 25  4  0
M  END
$$$$

 Created by Python create_sdf_string function

 29 43  0  0  0  0  0  0  0  0999 V2000
    9.4911   -5.6799   18.6915 C   0  0  0  0  0  0  0  0  0  0  0  0
    0.0642  -10.7314   17.4837 N   0  0  0  0  0  0  0  0  0  0  0  0
    5.7424   -8.5938   18.0592 C   0  0  0  0  0  0  0  0  0  0  0  0
    5.4064   -8.1161   15.5648 C   0  0  0  0  0  0  0  0  0  0  0  0
    6.7344   -7.5981   15.8900 N   0  0  0  0  0  0  0  0  0  0  0  0
    4.8474   -9.2913   17.9557 C   0  0  0  0  0  0  0  0  0  0  0  0
    9.3702   -7.1381   18.3137 C   0  0  0  0  0  0  0  0  0  0  0  0
   10.5992   -5.0607   19.1289 C   0  0  0  0  0  0  0  0  0  0  0  0
    7.0617   -5.7007   14.9705 O   0  0  0  0  0  0  0  0  0  0  0  0
    9.0676   -5.3552   17.2411 C   0  0  0  0  0  0  0  0  0  0  0  0
    0.1426  -10.2400   16.2210 N   0  0  0  0  0  0  0  0  0  0  0  0
    8.1317   -7.5006   17.7721 C   0  0  0  0  0  0  0  0  0  0  0  0
    4.0866   -8.8169   15.6397 C   0  0  0  0  0  0  0  0  0  0  0  0
   10.0597   -2.9572   16.8943 C   0  0  0  0  0  0  0  0  0  0  0  0
    7.1807   -8.2776   17.2496 C   0  0  0  0  0  0  0  0  0  0  0  0
    5.0490   -9.4040   15.5577 C   0  0  0  0  0  0  0  0  0  0  0  0
   11.1292   -3.7680   19.1052 C   0  0  0  0  0  0  0  0  0  0  0  0
   11.3762   -4.7626   21.2609 C   0  0  0  0  0  0  0  0  0  0  0  0
    3.7811   -9.3560   17.0191 N   0  0  0  0  0  0  0  0  0  0  0  0
    8.1511   -6.5682   16.6058 N   0  0  0  0  0  0  0  0  0  0  0  0
   11.5211   -3.3819   20.4612 N   0  0  0  0  0  0  0  0  0  0  0  0
    1.3603   -9.5474   16.2913 C   0  0  0  0  0  0  0  0  0  0  0  0
    2.4752   -9.5213   17.2371 C   0  0  0  0  0  0  0  0  0  0  0  0
   10.7505   -3.0903   18.2509 N   0  0  0  0  0  0  0  0  0  0  0  0
    9.4163   -4.0752   16.6820 C   0  0  0  0  0  0  0  0  0  0  0  0
    7.4965   -6.2947   15.7759 C   0  0  0  0  0  0  0  0  0  0  0  0
   10.7892   -5.3548   20.3302 C   0  0  0  0  0  0  0  0  0  0  0  0
    0.8485  -11.2005   18.5479 He  0  0  0  0  0  0  0  0  0  0  0  0
    2.1080  -10.1863   18.3700 He  0  0  0  0  0  0  0  0  0  0  0  0
  1  7  1  0
  1  8  2  0
  1 10  1  0
  1 18  3  0
  1 21  2  0
  2 11  4  0
  2 16  4  0
  3 15  1  0
  3 26  3  0
  4  7  3  0
  4 13  1  0
  4 16  1  0
  4 25  3  0
  5 15  1  0
  5 26  1  0
  6 19  1  0
  6 25  1  0
  7 12  2  0
  8  9  3  0
  8 16  2  0
  8 17  4  0
  9 26  2  0
 10 16  3  0
 10 25  4  0
 10 27  2  0
 11 15  1  0
 11 17  1  0
 11 24  1  0
 12 15  3  0
 12 20  1  0
 13 16  1  0
 13 19  1  0
 13 25  1  0
 14 16  4  0
 14 24  4  0
 14 25  4  0
 17 21  4  0
 17 24  4  0
 18 26  2  0
 18 27  4  0
 19 23  1  0
 20 26  1  0
 22 23  4  0
M  END
$$$$

 Created by Python create_sdf_string function

 29 35  0  0  0  0  0  0  0  0999 V2000
    9.7416   -5.8205   18.3713 C   0  0  0  0  0  0  0  0  0  0  0  0
   -0.0515  -10.8769   17.4610 N   0  0  0  0  0  0  0  0  0  0  0  0
    5.8953   -8.5767   18.0103 C   0  0  0  0  0  0  0  0  0  0  0  0
    5.3520   -8.0954   15.4928 C   0  0  0  0  0  0  0  0  0  0  0  0
    6.6631   -7.6576   15.9307 N   0  0  0  0  0  0  0  0  0  0  0  0
    4.7800   -9.3701   17.9471 C   0  0  0  0  0  0  0  0  0  0  0  0
    9.2461   -7.1491   18.6241 C   0  0  0  0  0  0  0  0  0  0  0  0
   10.3840   -5.0612   19.2376 C   0  0  0  0  0  0  0  0  0  0  0  0
    7.0743   -5.6362   14.8983 O   0  0  0  0  0  0  0  0  0  0  0  0
    9.1299   -5.3536   17.1935 C   0  0  0  0  0  0  0  0  0  0  0  0
    0.2222  -10.1513   16.3699 N   0  0  0  0  0  0  0  0  0  0  0  0
    8.2334   -7.4246   17.6512 C   0  0  0  0  0  0  0  0  0  0  0  0
    4.1560   -8.7924   15.7636 C   0  0  0  0  0  0  0  0  0  0  0  0
   10.1958   -3.1248   17.0468 C   0  0  0  0  0  0  0  0  0  0  0  0
    0.8294  -10.9827   18.4865 C   0  0  0  0  0  0  0  0  0  0  0  0
    7.0508   -8.3333   17.2216 C   0  0  0  0  0  0  0  0  0  0  0  0
    5.1719   -9.3641   15.3368 C   0  0  0  0  0  0  0  0  0  0  0  0
   10.8829   -3.7372   19.1611 C   0  0  0  0  0  0  0  0  0  0  0  0
   11.4817   -4.5341   21.1976 C   0  0  0  0  0  0  0  0  0  0  0  0
    3.6729   -9.1941   17.0969 N   0  0  0  0  0  0  0  0  0  0  0  0
    8.2208   -6.3201   16.7627 N   0  0  0  0  0  0  0  0  0  0  0  0
    2.0515  -10.4195   18.3178 C   0  0  0  0  0  0  0  0  0  0  0  0
   11.5525   -3.4530   20.3616 N   0  0  0  0  0  0  0  0  0  0  0  0
    1.4478   -9.5839   16.2307 C   0  0  0  0  0  0  0  0  0  0  0  0
    2.4061   -9.7269   17.2214 C   0  0  0  0  0  0  0  0  0  0  0  0
   10.9014   -2.9144   18.1704 N   0  0  0  0  0  0  0  0  0  0  0  0
    9.3693   -4.1278   16.6785 C   0  0  0  0  0  0  0  0  0  0  0  0
    7.3063   -6.4504   15.7756 C   0  0  0  0  0  0  0  0  0  0  0  0
   10.8105   -5.5668   20.4934 C   0  0  0  0  0  0  0  0  0  0  0  0
  1  7  1  0
  1  8  4  0
  1 10  4  0
  2 11  4  0
  2 15  4  0
  3  6  1  0
  3 16  1  0
  4  5  1  0
  4 13  1  0
  4 17  1  0
  5 16  1  0
  5 28  1  0
  6 20  1  0
  7 12  2  0
  8 18  4  0
  8 29  4  0
  9 28  2  0
 10 21  1  0
 10 27  4  0
 11 24  4  0
 12 16  1  0
 12 21  1  0
 13 17  1  0
 13 20  1  0
 14 26  4  0
 14 27  4  0
 15 22  4  0
 18 23  4  0
 18 26  4  0
 19 23  4  0
 19 29  4  0
 20 25  1  0
 21 28  1  0
 22 25  4  0
 24 25  4  0
M  END
$$$$

 Created by Python create_sdf_string function

 29 51  0  0  0  0  0  0  0  0999 V2000
    9.7132   -6.0452   18.4282 C   0  0  0  0  0  0  0  0  0  0  0  0
   -0.0683  -10.6956   17.5128 N   0  0  0  0  0  0  0  0  0  0  0  0
    5.8733   -8.3977   18.2313 C   0  0  0  0  0  0  0  0  0  0  0  0
    5.5513   -8.0895   15.4876 N   0  0  0  0  0  0  0  0  0  0  0  0
    6.7440   -7.7063   15.9651 N   0  0  0  0  0  0  0  0  0  0  0  0
    4.9782   -9.4967   17.8372 C   0  0  0  0  0  0  0  0  0  0  0  0
    9.2804   -7.0410   18.4150 C   0  0  0  0  0  0  0  0  0  0  0  0
   10.2312   -5.1561   19.4674 F   0  0  0  0  0  0  0  0  0  0  0  0
    6.8904   -5.6716   14.8565 O   0  0  0  0  0  0  0  0  0  0  0  0
    9.1173   -5.6214   17.2441 C   0  0  0  0  0  0  0  0  0  0  0  0
    0.0838  -10.1492   16.5555 N   0  0  0  0  0  0  0  0  0  0  0  0
    8.3391   -7.5911   17.7337 C   0  0  0  0  0  0  0  0  0  0  0  0
    3.9330   -8.7330   15.7546 C   0  0  0  0  0  0  0  0  0  0  0  0
   10.4043   -2.9355   16.8863 C   0  0  0  0  0  0  0  0  0  0  0  0
    0.8276  -11.0546   18.0980 C   0  0  0  0  0  0  0  0  0  0  0  0
    5.2808   -9.1522   15.1329 C   0  0  0  0  0  0  0  0  0  0  0  0
   10.6279   -3.4635   19.1004 N   0  0  0  0  0  0  0  0  0  0  0  0
   11.4354   -4.5052   21.1319 C   0  0  0  0  0  0  0  0  0  0  0  0
    3.6422   -9.1428   17.2822 N   0  0  0  0  0  0  0  0  0  0  0  0
    8.1623   -6.4492   16.7769 N   0  0  0  0  0  0  0  0  0  0  0  0
    2.1922  -10.4637   18.4479 C   0  0  0  0  0  0  0  0  0  0  0  0
   11.6320   -3.3306   20.2139 N   0  0  0  0  0  0  0  0  0  0  0  0
    1.7072   -9.9138   16.3631 C   0  0  0  0  0  0  0  0  0  0  0  0
    2.4580   -9.6359   17.1062 S   0  0  0  0  0  0  0  0  0  0  0  0
   10.9436   -2.9190   18.0768 N   0  0  0  0  0  0  0  0  0  0  0  0
    9.5870   -4.1739   16.6649 C   0  0  0  0  0  0  0  0  0  0  0  0
    7.4104   -6.5213   15.7626 C   0  0  0  0  0  0  0  0  0  0  0  0
   10.7873   -5.5145   20.5025 C   0  0  0  0  0  0  0  0  0  0  0  0
    6.9731   -8.2632   17.2214 He  0  0  0  0  0  0  0  0  0  0  0  0
  1  4  1  0
  1  7  1  0
  1  8  4  0
  1 10  4  0
  1 16  2  0
  2  4  3  0
  2 11  4  0
  2 15  4  0
  2 19  3  0
  2 26  3  0
  3  6  1  0
  3 23  1  0
  4  5  1  0
  4 13  1  0
  4 14  1  0
  4 16  1  0
  4 24  1  0
  5 27  1  0
  6 19  1  0
  7 12  2  0
  7 18  1  0
  8 17  4  0
  8 26  3  0
  8 28  4  0
  9 27  2  0
 10 14  2  0
 10 16  3  0
 10 17  2  0
 10 20  1  0
 10 26  4  0
 12 20  1  0
 12 27  2  0
 13 16  1  0
 13 18  3  0
 13 19  1  0
 14 25  1  0
 14 26  4  0
 14 27  3  0
 15 21  4  0
 15 23  3  0
 17 22  4  0
 17 25  4  0
 18 20  4  0
 18 22  4  0
 18 27  1  0
 18 28  4  0
 19 24  1  0
 20 27  1  0
 21 23  2  0
 21 24  4  0
 23 24  4  0
M  END
$$$$

 Created by Python create_sdf_string function

 29 35  0  0  0  0  0  0  0  0999 V2000
    9.6773   -5.8099   18.4308 C   0  0  0  0  0  0  0  0  0  0  0  0
   -0.0685  -10.8586   17.5154 N   0  0  0  0  0  0  0  0  0  0  0  0
    5.8646   -8.4458   18.0493 C   0  0  0  0  0  0  0  0  0  0  0  0
    5.3275   -8.0279   15.4980 C   0  0  0  0  0  0  0  0  0  0  0  0
    6.6793   -7.7217   15.9388 N   0  0  0  0  0  0  0  0  0  0  0  0
    4.8601   -9.4927   17.8734 C   0  0  0  0  0  0  0  0  0  0  0  0
    9.2541   -7.1769   18.6042 C   0  0  0  0  0  0  0  0  0  0  0  0
   10.4036   -5.0619   19.2265 C   0  0  0  0  0  0  0  0  0  0  0  0
    7.0239   -5.6734   14.9151 O   0  0  0  0  0  0  0  0  0  0  0  0
    9.1876   -5.4024   17.2121 C   0  0  0  0  0  0  0  0  0  0  0  0
    0.2434  -10.1625   16.3887 N   0  0  0  0  0  0  0  0  0  0  0  0
    8.2384   -7.4373   17.6496 C   0  0  0  0  0  0  0  0  0  0  0  0
    4.0574   -8.6813   15.7803 C   0  0  0  0  0  0  0  0  0  0  0  0
   10.3150   -3.1679   16.9534 C   0  0  0  0  0  0  0  0  0  0  0  0
    0.8581  -11.0218   18.4787 C   0  0  0  0  0  0  0  0  0  0  0  0
    7.0540   -8.3431   17.2480 C   0  0  0  0  0  0  0  0  0  0  0  0
    5.0882   -9.2607   15.1995 C   0  0  0  0  0  0  0  0  0  0  0  0
   10.8886   -3.7193   19.0904 C   0  0  0  0  0  0  0  0  0  0  0  0
   11.4393   -4.4087   21.1458 C   0  0  0  0  0  0  0  0  0  0  0  0
    3.6818   -9.1828   17.1091 N   0  0  0  0  0  0  0  0  0  0  0  0
    8.2887   -6.3677   16.7296 N   0  0  0  0  0  0  0  0  0  0  0  0
    2.0877  -10.5449   18.3064 C   0  0  0  0  0  0  0  0  0  0  0  0
   11.4619   -3.3525   20.3005 N   0  0  0  0  0  0  0  0  0  0  0  0
    1.4810   -9.6187   16.2516 C   0  0  0  0  0  0  0  0  0  0  0  0
    2.4462   -9.7916   17.2115 C   0  0  0  0  0  0  0  0  0  0  0  0
   10.8685   -2.8503   18.1501 N   0  0  0  0  0  0  0  0  0  0  0  0
    9.5685   -4.2231   16.6112 C   0  0  0  0  0  0  0  0  0  0  0  0
    7.3256   -6.4727   15.7783 C   0  0  0  0  0  0  0  0  0  0  0  0
   10.7552   -5.4924   20.5699 C   0  0  0  0  0  0  0  0  0  0  0  0
  1  7  1  0
  1  8  4  0
  1 10  4  0
  2 11  4  0
  2 15  4  0
  3  6  1  0
  3 16  1  0
  4  5  1  0
  4 13  1  0
  4 17  1  0
  5 16  1  0
  5 28  1  0
  6 20  1  0
  7 12  2  0
  8 18  4  0
  8 29  4  0
  9 28  2  0
 10 21  1  0
 10 27  4  0
 11 24  4  0
 12 16  1  0
 12 21  1  0
 13 17  1  0
 13 20  1  0
 14 26  4  0
 14 27  4  0
 15 22  4  0
 18 23  4  0
 18 26  4  0
 19 23  4  0
 19 29  4  0
 20 25  1  0
 21 28  1  0
 22 25  4  0
 24 25  4  0
M  END
$$$$

 Created by Python create_sdf_string function

 29 46  0  0  0  0  0  0  0  0999 V2000
    9.9814   -5.6632   18.2061 C   0  0  0  0  0  0  0  0  0  0  0  0
   -0.1404  -10.9742   17.5668 N   0  0  0  0  0  0  0  0  0  0  0  0
    6.0370   -8.4605   18.2888 F   0  0  0  0  0  0  0  0  0  0  0  0
    5.2689   -8.1427   15.6082 C   0  0  0  0  0  0  0  0  0  0  0  0
    6.4920   -7.7983   16.0216 N   0  0  0  0  0  0  0  0  0  0  0  0
    4.8331   -9.7327   17.7073 C   0  0  0  0  0  0  0  0  0  0  0  0
   10.4997   -5.0090   19.0951 C   0  0  0  0  0  0  0  0  0  0  0  0
    6.8043   -5.6205   15.1089 O   0  0  0  0  0  0  0  0  0  0  0  0
    8.9308   -5.3264   17.3243 C   0  0  0  0  0  0  0  0  0  0  0  0
    0.4659  -10.1584   16.0230 N   0  0  0  0  0  0  0  0  0  0  0  0
    8.2772   -7.5939   17.7027 C   0  0  0  0  0  0  0  0  0  0  0  0
    4.0559   -8.7759   15.8647 C   0  0  0  0  0  0  0  0  0  0  0  0
   10.5083   -3.0222   17.1731 C   0  0  0  0  0  0  0  0  0  0  0  0
    0.8034  -10.9916   18.6608 C   0  0  0  0  0  0  0  0  0  0  0  0
    7.1105   -8.3834   17.4088 C   0  0  0  0  0  0  0  0  0  0  0  0
    5.0999   -9.3858   15.1752 C   0  0  0  0  0  0  0  0  0  0  0  0
   10.7535   -3.7933   18.9801 C   0  0  0  0  0  0  0  0  0  0  0  0
   11.5332   -4.3461   21.1794 C   0  0  0  0  0  0  0  0  0  0  0  0
    3.6450   -9.1791   17.3337 P   0  0  0  0  0  0  0  0  0  0  0  0
    8.2149   -6.3287   16.9288 N   0  0  0  0  0  0  0  0  0  0  0  0
    2.1102  -10.2337   18.4026 C   0  0  0  0  0  0  0  0  0  0  0  0
   11.2617   -3.3923   20.3386 N   0  0  0  0  0  0  0  0  0  0  0  0
    1.3853   -9.7467   16.0404 C   0  0  0  0  0  0  0  0  0  0  0  0
    2.4789   -9.8991   17.1396 C   0  0  0  0  0  0  0  0  0  0  0  0
   10.7831   -2.7181   18.0237 N   0  0  0  0  0  0  0  0  0  0  0  0
    9.5097   -4.3550   16.5382 C   0  0  0  0  0  0  0  0  0  0  0  0
    7.2669   -6.5959   16.0438 C   0  0  0  0  0  0  0  0  0  0  0  0
   10.6886   -5.4204   20.5733 C   0  0  0  0  0  0  0  0  0  0  0  0
    9.4072   -7.0881   18.4036 He  0  0  0  0  0  0  0  0  0  0  0  0
  1  3  4  0
  1  7  4  0
  1  9  4  0
  2  8  1  0
  2 10  4  0
  2 14  4  0
  3  6  1  0
  3 12  2  0
  3 13  4  0
  4  5  1  0
  4 12  1  0
  4 16  1  0
  4 28  1  0
  5 15  1  0
  5 27  1  0
  6 19  3  0
  6 25  2  0
  7  9  2  0
  7 17  4  0
  7 28  4  0
  8 12  4  0
  8 26  2  0
  8 27  2  0
  9 20  1  0
  9 26  4  0
 10 17  3  0
 10 23  4  0
 10 28  1  0
 11 13  3  0
 11 15  1  0
 11 20  1  0
 11 23  1  0
 12 16  1  0
 12 19  1  0
 13 25  4  0
 13 26  4  0
 14 21  4  0
 14 26  2  0
 15 21  4  0
 17 22  4  0
 17 25  2  0
 19 24  1  0
 20 23  1  0
 20 27  1  0
 21 24  4  0
 26 27  3  0
M  END
$$$$

 Created by Python create_sdf_string function

 29 35  0  0  0  0  0  0  0  0999 V2000
    9.7265   -5.8277   18.4012 C   0  0  0  0  0  0  0  0  0  0  0  0
   -0.0435  -10.8925   17.4603 N   0  0  0  0  0  0  0  0  0  0  0  0
    5.9138   -8.6720   18.1335 C   0  0  0  0  0  0  0  0  0  0  0  0
    5.2998   -8.0829   15.6713 C   0  0  0  0  0  0  0  0  0  0  0  0
    6.5814   -7.7574   16.0893 N   0  0  0  0  0  0  0  0  0  0  0  0
    4.8843   -9.5833   17.8676 C   0  0  0  0  0  0  0  0  0  0  0  0
    9.4266   -7.2316   18.5800 O   0  0  0  0  0  0  0  0  0  0  0  0
   10.4113   -5.0471   19.2174 C   0  0  0  0  0  0  0  0  0  0  0  0
    6.8754   -5.6334   15.1094 O   0  0  0  0  0  0  0  0  0  0  0  0
    9.1763   -5.4229   17.2369 C   0  0  0  0  0  0  0  0  0  0  0  0
    0.3028  -10.3191   16.2902 N   0  0  0  0  0  0  0  0  0  0  0  0
    8.3177   -7.4883   17.6876 C   0  0  0  0  0  0  0  0  0  0  0  0
    4.1793   -8.6442   15.8191 C   0  0  0  0  0  0  0  0  0  0  0  0
   10.2759   -3.1921   16.9511 C   0  0  0  0  0  0  0  0  0  0  0  0
    0.8035  -10.9222   18.5204 C   0  0  0  0  0  0  0  0  0  0  0  0
    7.0932   -8.4119   17.3439 C   0  0  0  0  0  0  0  0  0  0  0  0
    5.0988   -9.3060   15.2252 C   0  0  0  0  0  0  0  0  0  0  0  0
   10.8490   -3.6986   19.1037 C   0  0  0  0  0  0  0  0  0  0  0  0
   11.3660   -4.3863   21.1637 C   0  0  0  0  0  0  0  0  0  0  0  0
    3.7330   -9.2700   17.0961 N   0  0  0  0  0  0  0  0  0  0  0  0
    8.2138   -6.3702   16.8383 N   0  0  0  0  0  0  0  0  0  0  0  0
    2.0477  -10.4099   18.3697 C   0  0  0  0  0  0  0  0  0  0  0  0
   11.3874   -3.3221   20.3206 N   0  0  0  0  0  0  0  0  0  0  0  0
    1.5255   -9.7471   16.1379 C   0  0  0  0  0  0  0  0  0  0  0  0
    2.4267   -9.7941   17.1937 C   0  0  0  0  0  0  0  0  0  0  0  0
   10.8701   -2.8981   18.1363 N   0  0  0  0  0  0  0  0  0  0  0  0
    9.5000   -4.2532   16.6268 C   0  0  0  0  0  0  0  0  0  0  0  0
    7.1896   -6.4873   15.9571 C   0  0  0  0  0  0  0  0  0  0  0  0
   10.8527   -5.4912   20.5038 C   0  0  0  0  0  0  0  0  0  0  0  0
  1  7  1  0
  1  8  4  0
  1 10  4  0
  2 11  4  0
  2 15  4  0
  3  6  1  0
  3 16  1  0
  4  5  1  0
  4 13  1  0
  4 17  1  0
  5 16  1  0
  5 28  1  0
  6 20  1  0
  7 12  2  0
  8 18  4  0
  8 29  4  0
  9 28  2  0
 10 21  1  0
 10 27  4  0
 11 24  4  0
 12 16  1  0
 12 21  1  0
 13 17  1  0
 13 20  1  0
 14 26  4  0
 14 27  4  0
 15 22  4  0
 18 23  4  0
 18 26  4  0
 19 23  4  0
 19 29  4  0
 20 25  1  0
 21 28  1  0
 22 25  4  0
 24 25  4  0
M  END
$$$$

 Created by Python create_sdf_string function

 29 32  0  0  0  0  0  0  0  0999 V2000
    9.7868   -5.9622   17.9774 C   0  0  0  0  0  0  0  0  0  0  0  0
   -0.3573  -10.8666   17.6148 N   0  0  0  0  0  0  0  0  0  0  0  0
    5.7537   -8.5915   18.0810 C   0  0  0  0  0  0  0  0  0  0  0  0
    5.2472   -8.2008   15.6342 C   0  0  0  0  0  0  0  0  0  0  0  0
    6.4981   -7.7789   16.2860 N   0  0  0  0  0  0  0  0  0  0  0  0
    4.7678   -9.5986   17.6822 C   0  0  0  0  0  0  0  0  0  0  0  0
   10.4795   -5.1151   19.3158 C   0  0  0  0  0  0  0  0  0  0  0  0
    7.0674   -5.6846   15.2035 O   0  0  0  0  0  0  0  0  0  0  0  0
    9.2270   -5.6047   17.3386 C   0  0  0  0  0  0  0  0  0  0  0  0
    0.3363  -10.1828   16.2710 N   0  0  0  0  0  0  0  0  0  0  0  0
    8.1564   -7.5881   17.6124 C   0  0  0  0  0  0  0  0  0  0  0  0
    4.0293   -8.5279   16.0536 C   0  0  0  0  0  0  0  0  0  0  0  0
   10.1145   -3.2125   16.9845 C   0  0  0  0  0  0  0  0  0  0  0  0
    0.9845  -10.9210   18.4900 C   0  0  0  0  0  0  0  0  0  0  0  0
    4.9520   -9.3542   15.0575 C   0  0  0  0  0  0  0  0  0  0  0  0
   10.7781   -3.6234   19.1392 C   0  0  0  0  0  0  0  0  0  0  0  0
   11.3037   -4.4774   21.2045 C   0  0  0  0  0  0  0  0  0  0  0  0
    3.8506   -9.2700   17.0192 N   0  0  0  0  0  0  0  0  0  0  0  0
    8.0190   -6.3359   16.7627 N   0  0  0  0  0  0  0  0  0  0  0  0
    1.9895  -10.3604   18.2680 C   0  0  0  0  0  0  0  0  0  0  0  0
   11.3040   -3.3247   20.2949 N   0  0  0  0  0  0  0  0  0  0  0  0
    1.4805   -9.8636   16.2754 C   0  0  0  0  0  0  0  0  0  0  0  0
    2.6196   -9.9113   17.1880 C   0  0  0  0  0  0  0  0  0  0  0  0
   10.6138   -2.7609   18.3667 N   0  0  0  0  0  0  0  0  0  0  0  0
   10.8004   -5.5209   20.3802 C   0  0  0  0  0  0  0  0  0  0  0  0
    9.3966   -7.3659   18.4300 He  0  0  0  0  0  0  0  0  0  0  0  0
    6.9877   -8.5720   17.2625 He  0  0  0  0  0  0  0  0  0  0  0  0
    9.4752   -4.2700   16.5112 He  0  0  0  0  0  0  0  0  0  0  0  0
    7.0648   -6.3006   15.8407 He  0  0  0  0  0  0  0  0  0  0  0  0
  1  7  4  0
  1  9  4  0
  1 16  1  0
  2  6  3  0
  2 10  4  0
  2 12  2  0
  2 14  4  0
  3  6  1  0
  4  5  1  0
  4 13  3  0
  4 15  1  0
  4 21  2  0
  5 15  4  0
  6 18  1  0
  7  8  4  0
  7 16  4  0
  7 25  3  0
  9 19  1  0
 11 19  1  0
 12 15  1  0
 12 18  1  0
 12 25  2  0
 13 24  4  0
 14 20  4  0
 16 21  4  0
 16 23  4  0
 17 21  4  0
 17 25  2  0
 18 20  3  0
 18 23  1  0
 20 23  4  0
 22 23  2  0
M  END
$$$$

 Created by Python create_sdf_string function

 29 35  0  0  0  0  0  0  0  0999 V2000
    9.7346   -5.9170   18.3615 C   0  0  0  0  0  0  0  0  0  0  0  0
   -0.1045  -10.8437   17.5666 N   0  0  0  0  0  0  0  0  0  0  0  0
    5.7818   -8.6810   18.0700 C   0  0  0  0  0  0  0  0  0  0  0  0
    5.2906   -8.0669   15.5103 C   0  0  0  0  0  0  0  0  0  0  0  0
    6.4740   -7.6829   16.0401 N   0  0  0  0  0  0  0  0  0  0  0  0
    4.8103   -9.6807   17.8070 C   0  0  0  0  0  0  0  0  0  0  0  0
    9.4173   -7.3385   18.5084 C   0  0  0  0  0  0  0  0  0  0  0  0
   10.4084   -5.1392   19.1862 C   0  0  0  0  0  0  0  0  0  0  0  0
    6.9689   -5.5954   15.0879 O   0  0  0  0  0  0  0  0  0  0  0  0
    9.1375   -5.4675   17.2062 C   0  0  0  0  0  0  0  0  0  0  0  0
    0.2312  -10.2676   16.3737 N   0  0  0  0  0  0  0  0  0  0  0  0
    8.2516   -7.5646   17.6379 C   0  0  0  0  0  0  0  0  0  0  0  0
    4.0470   -8.5155   15.9648 C   0  0  0  0  0  0  0  0  0  0  0  0
   10.1118   -3.1948   17.0031 C   0  0  0  0  0  0  0  0  0  0  0  0
    0.8154  -10.9355   18.5586 C   0  0  0  0  0  0  0  0  0  0  0  0
    6.9377   -8.4325   17.2378 C   0  0  0  0  0  0  0  0  0  0  0  0
    4.9688   -9.2728   15.0782 C   0  0  0  0  0  0  0  0  0  0  0  0
   10.7595   -3.7383   19.1343 C   0  0  0  0  0  0  0  0  0  0  0  0
   11.3362   -4.4612   21.1668 C   0  0  0  0  0  0  0  0  0  0  0  0
    3.7089   -9.3599   17.0364 N   0  0  0  0  0  0  0  0  0  0  0  0
    8.1770   -6.4296   16.7992 N   0  0  0  0  0  0  0  0  0  0  0  0
    2.0552  -10.4979   18.3589 C   0  0  0  0  0  0  0  0  0  0  0  0
   11.2858   -3.3589   20.3656 N   0  0  0  0  0  0  0  0  0  0  0  0
    1.4629   -9.7751   16.2103 C   0  0  0  0  0  0  0  0  0  0  0  0
    2.4305   -9.8536   17.1908 C   0  0  0  0  0  0  0  0  0  0  0  0
   10.6885   -2.8851   18.1764 N   0  0  0  0  0  0  0  0  0  0  0  0
    9.4386   -4.2819   16.6049 C   0  0  0  0  0  0  0  0  0  0  0  0
    7.1760   -6.4714   15.8902 C   0  0  0  0  0  0  0  0  0  0  0  0
   10.8424   -5.5878   20.4581 C   0  0  0  0  0  0  0  0  0  0  0  0
  1  7  1  0
  1  8  4  0
  1 10  4  0
  2 11  4  0
  2 15  4  0
  3  6  1  0
  3 16  1  0
  4  5  1  0
  4 13  1  0
  4 17  1  0
  5 16  1  0
  5 28  1  0
  6 20  1  0
  7 12  2  0
  8 18  4  0
  8 29  4  0
  9 28  2  0
 10 21  1  0
 10 27  4  0
 11 24  4  0
 12 16  1  0
 12 21  1  0
 13 17  1  0
 13 20  1  0
 14 26  4  0
 14 27  4  0
 15 22  4  0
 18 23  4  0
 18 26  4  0
 19 23  4  0
 19 29  4  0
 20 25  1  0
 21 28  1  0
 22 25  4  0
 24 25  4  0
M  END
$$$$

 Created by Python create_sdf_string function

 29 40  0  0  0  0  0  0  0  0999 V2000
    0.0044  -10.8346   17.5977 N   0  0  0  0  0  0  0  0  0  0  0  0
    5.8675   -8.6878   18.0734 C   0  0  0  0  0  0  0  0  0  0  0  0
    5.3499   -7.8490   15.5720 C   0  0  0  0  0  0  0  0  0  0  0  0
    6.5166   -7.6765   15.9983 N   0  0  0  0  0  0  0  0  0  0  0  0
    4.7924   -9.7328   17.8713 C   0  0  0  0  0  0  0  0  0  0  0  0
    9.1842   -7.3834   18.4778 C   0  0  0  0  0  0  0  0  0  0  0  0
   10.4636   -5.0461   19.1506 C   0  0  0  0  0  0  0  0  0  0  0  0
    8.9384   -5.3606   17.1308 C   0  0  0  0  0  0  0  0  0  0  0  0
    0.3382  -10.1843   16.3121 N   0  0  0  0  0  0  0  0  0  0  0  0
    8.3478   -7.4739   17.7220 C   0  0  0  0  0  0  0  0  0  0  0  0
    4.0856   -8.4518   15.9513 C   0  0  0  0  0  0  0  0  0  0  0  0
   10.2013   -3.0919   16.9103 C   0  0  0  0  0  0  0  0  0  0  0  0
    0.5559  -11.1731   18.6391 C   0  0  0  0  0  0  0  0  0  0  0  0
    7.1371   -8.4565   17.2553 C   0  0  0  0  0  0  0  0  0  0  0  0
    4.9368   -9.5144   14.8516 C   0  0  0  0  0  0  0  0  0  0  0  0
   10.7847   -3.6301   19.1608 C   0  0  0  0  0  0  0  0  0  0  0  0
   11.2418   -4.3996   21.1201 C   0  0  0  0  0  0  0  0  0  0  0  0
    3.7583   -9.5376   16.8807 N   0  0  0  0  0  0  0  0  0  0  0  0
    8.1443   -6.6209   16.6850 N   0  0  0  0  0  0  0  0  0  0  0  0
    1.8019  -10.6221   18.1564 C   0  0  0  0  0  0  0  0  0  0  0  0
   11.6130   -3.3029   20.2442 N   0  0  0  0  0  0  0  0  0  0  0  0
    1.5938   -9.6524   16.1132 N   0  0  0  0  0  0  0  0  0  0  0  0
    2.5547   -9.8070   17.3282 C   0  0  0  0  0  0  0  0  0  0  0  0
   10.7513   -2.9402   18.2566 N   0  0  0  0  0  0  0  0  0  0  0  0
    9.3464   -4.2439   16.5363 C   0  0  0  0  0  0  0  0  0  0  0  0
    7.3310   -6.5666   15.7601 C   0  0  0  0  0  0  0  0  0  0  0  0
   10.6984   -5.6509   20.5616 C   0  0  0  0  0  0  0  0  0  0  0  0
    9.5774   -5.7469   18.2102 He  0  0  0  0  0  0  0  0  0  0  0  0
    7.0755   -5.5857   15.0851 He  0  0  0  0  0  0  0  0  0  0  0  0
  1 13  4  0
  2  5  1  0
  2 14  1  0
  3  4  1  0
  3 11  1  0
  3 15  1  0
  3 19  4  0
  4 12  1  0
  4 14  1  0
  4 26  1  0
  5 18  1  0
  6  7  2  0
  6 10  2  0
  7 16  4  0
  7 23  4  0
  7 27  4  0
  8 19  1  0
  8 25  4  0
  9 16  4  0
  9 22  4  0
 10 14  1  0
 10 18  1  0
 10 19  1  0
 11 15  1  0
 11 18  1  0
 12 24  4  0
 13 20  4  0
 13 23  4  0
 16 21  4  0
 16 24  4  0
 17 21  4  0
 17 23  3  0
 17 27  4  0
 18 23  1  0
 19 22  1  0
 19 26  1  0
 19 27  1  0
 20 23  4  0
 21 23  3  0
 22 23  4  0
M  END
$$$$

 Created by Python create_sdf_string function

 29 35  0  0  0  0  0  0  0  0999 V2000
    9.6349   -5.8241   18.3409 C   0  0  0  0  0  0  0  0  0  0  0  0
   -0.0882  -10.8298   17.4492 N   0  0  0  0  0  0  0  0  0  0  0  0
    5.8375   -8.6942   18.0327 C   0  0  0  0  0  0  0  0  0  0  0  0
    5.2429   -8.0210   15.5728 C   0  0  0  0  0  0  0  0  0  0  0  0
    6.5553   -7.7309   15.9725 N   0  0  0  0  0  0  0  0  0  0  0  0
    4.8290   -9.6931   17.8130 C   0  0  0  0  0  0  0  0  0  0  0  0
    9.2340   -7.2189   18.5834 C   0  0  0  0  0  0  0  0  0  0  0  0
   10.3184   -5.0717   19.1820 C   0  0  0  0  0  0  0  0  0  0  0  0
    7.0640   -5.6376   14.9955 O   0  0  0  0  0  0  0  0  0  0  0  0
    9.1043   -5.4428   17.1573 C   0  0  0  0  0  0  0  0  0  0  0  0
    0.2770  -10.1748   16.3589 N   0  0  0  0  0  0  0  0  0  0  0  0
    8.2463   -7.5061   17.6254 C   0  0  0  0  0  0  0  0  0  0  0  0
    4.0726   -8.5110   15.9084 C   0  0  0  0  0  0  0  0  0  0  0  0
   10.1366   -3.1739   16.9462 C   0  0  0  0  0  0  0  0  0  0  0  0
    0.7548  -11.0587   18.4904 C   0  0  0  0  0  0  0  0  0  0  0  0
    7.0174   -8.4389   17.2097 C   0  0  0  0  0  0  0  0  0  0  0  0
    4.9575   -9.2785   15.0497 C   0  0  0  0  0  0  0  0  0  0  0  0
   10.8304   -3.7144   19.0735 C   0  0  0  0  0  0  0  0  0  0  0  0
   11.3682   -4.4392   21.1215 C   0  0  0  0  0  0  0  0  0  0  0  0
    3.7195   -9.4152   17.0264 N   0  0  0  0  0  0  0  0  0  0  0  0
    8.2208   -6.4380   16.7239 N   0  0  0  0  0  0  0  0  0  0  0  0
    2.0082  -10.5967   18.3115 C   0  0  0  0  0  0  0  0  0  0  0  0
   11.4403   -3.3572   20.2849 N   0  0  0  0  0  0  0  0  0  0  0  0
    1.5260   -9.6925   16.2210 N   0  0  0  0  0  0  0  0  0  0  0  0
    2.4480   -9.9031   17.1839 C   0  0  0  0  0  0  0  0  0  0  0  0
   10.7892   -2.9089   18.0978 N   0  0  0  0  0  0  0  0  0  0  0  0
    9.3758   -4.2410   16.5690 C   0  0  0  0  0  0  0  0  0  0  0  0
    7.2474   -6.5024   15.8203 C   0  0  0  0  0  0  0  0  0  0  0  0
   10.7082   -5.5315   20.4907 C   0  0  0  0  0  0  0  0  0  0  0  0
  1  7  1  0
  1  8  4  0
  1 10  4  0
  2 11  4  0
  2 15  4  0
  3  6  1  0
  3 16  1  0
  4  5  1  0
  4 13  1  0
  4 17  1  0
  5 16  1  0
  5 28  1  0
  6 20  1  0
  7 12  2  0
  8 18  4  0
  8 29  4  0
  9 28  2  0
 10 21  1  0
 10 27  4  0
 11 24  4  0
 12 16  1  0
 12 21  1  0
 13 17  1  0
 13 20  1  0
 14 26  4  0
 14 27  4  0
 15 22  4  0
 18 23  4  0
 18 26  4  0
 19 23  4  0
 19 29  4  0
 20 25  1  0
 21 28  1  0
 22 25  4  0
 24 25  4  0
M  END
$$$$

 Created by Python create_sdf_string function

 29 50  0  0  0  0  0  0  0  0999 V2000
    9.5924   -5.7245   18.3892 C   0  0  0  0  0  0  0  0  0  0  0  0
   -0.1076  -10.8591   17.4542 N   0  0  0  0  0  0  0  0  0  0  0  0
    5.8800   -8.8166   18.0305 C   0  0  0  0  0  0  0  0  0  0  0  0
    5.0323   -7.9992   15.4947 C   0  0  0  0  0  0  0  0  0  0  0  0
    6.6420   -7.6424   16.2316 N   0  0  0  0  0  0  0  0  0  0  0  0
    4.8726   -9.8292   17.8505 C   0  0  0  0  0  0  0  0  0  0  0  0
   10.3850   -5.0922   19.2207 C   0  0  0  0  0  0  0  0  0  0  0  0
    6.9178   -5.6533   14.9375 Cl  0  0  0  0  0  0  0  0  0  0  0  0
    9.2547   -5.3795   17.2156 C   0  0  0  0  0  0  0  0  0  0  0  0
    0.2831  -10.2211   16.2827 N   0  0  0  0  0  0  0  0  0  0  0  0
    8.2250   -7.4999   17.6371 C   0  0  0  0  0  0  0  0  0  0  0  0
    3.8173   -8.6300   15.9503 C   0  0  0  0  0  0  0  0  0  0  0  0
   10.0599   -3.1552   16.8264 C   0  0  0  0  0  0  0  0  0  0  0  0
    0.7302  -10.8118   18.4421 C   0  0  0  0  0  0  0  0  0  0  0  0
    7.0377   -8.4883   17.2448 C   0  0  0  0  0  0  0  0  0  0  0  0
    4.9909   -9.1738   15.0121 C   0  0  0  0  0  0  0  0  0  0  0  0
   10.8479   -3.6047   19.1762 N   0  0  0  0  0  0  0  0  0  0  0  0
   11.3184   -4.3778   21.1913 C   0  0  0  0  0  0  0  0  0  0  0  0
    3.5868   -9.7289   17.0094 N   0  0  0  0  0  0  0  0  0  0  0  0
    8.1824   -6.4186   16.8217 N   0  0  0  0  0  0  0  0  0  0  0  0
    2.2844  -10.7848   18.4673 C   0  0  0  0  0  0  0  0  0  0  0  0
   11.2882   -3.1965   20.3162 N   0  0  0  0  0  0  0  0  0  0  0  0
    1.4979   -9.4636   16.2133 N   0  0  0  0  0  0  0  0  0  0  0  0
    2.4550  -10.0709   17.2958 C   0  0  0  0  0  0  0  0  0  0  0  0
   10.8826   -2.8712   18.0036 N   0  0  0  0  0  0  0  0  0  0  0  0
    9.3073   -4.3555   16.8541 C   0  0  0  0  0  0  0  0  0  0  0  0
    7.1936   -6.5139   15.8196 C   0  0  0  0  0  0  0  0  0  0  0  0
   10.5446   -5.5502   20.3396 C   0  0  0  0  0  0  0  0  0  0  0  0
    9.3482   -7.4109   18.5339 He  0  0  0  0  0  0  0  0  0  0  0  0
  1  7  4  0
  1  9  4  0
  1 18  4  0
  2 10  4  0
  2 14  4  0
  2 19  3  0
  3  6  1  0
  4  5  1  0
  4  7  1  0
  4 12  1  0
  4 13  1  0
  4 16  1  0
  4 24  2  0
  4 28  2  0
  5  6  1  0
  5 15  1  0
  5 24  1  0
  5 27  1  0
  6 10  1  0
  6 11  2  0
  6 19  1  0
  7 17  4  0
  7 26  2  0
  7 28  4  0
  8 27  2  0
  9 15  3  0
  9 19  1  0
  9 26  4  0
 10 11  2  0
 10 23  4  0
 11 15  1  0
 11 20  1  0
 12 16  1  0
 12 19  1  0
 13 25  4  0
 13 26  4  0
 14 21  4  0
 14 24  1  0
 14 25  3  0
 15 21  3  0
 17 22  4  0
 17 25  4  0
 18 22  4  0
 18 28  4  0
 19 24  1  0
 20 23  2  0
 20 27  1  0
 21 24  4  0
 23 24  4  0
 25 27  3  0
M  END
$$$$

 Created by Python create_sdf_string function

 29 35  0  0  0  0  0  0  0  0999 V2000
    9.6588   -5.8496   18.3739 C   0  0  0  0  0  0  0  0  0  0  0  0
   -0.1108  -10.7961   17.4836 N   0  0  0  0  0  0  0  0  0  0  0  0
    5.8562   -8.8258   18.0330 C   0  0  0  0  0  0  0  0  0  0  0  0
    5.1059   -7.9690   15.6644 C   0  0  0  0  0  0  0  0  0  0  0  0
    6.4897   -7.6988   16.0532 N   0  0  0  0  0  0  0  0  0  0  0  0
    4.8733   -9.8192   17.7699 C   0  0  0  0  0  0  0  0  0  0  0  0
    9.2640   -7.2648   18.6023 C   0  0  0  0  0  0  0  0  0  0  0  0
   10.3322   -5.0700   19.2004 C   0  0  0  0  0  0  0  0  0  0  0  0
    6.9445   -5.6967   14.9876 O   0  0  0  0  0  0  0  0  0  0  0  0
    9.1063   -5.4250   17.2194 C   0  0  0  0  0  0  0  0  0  0  0  0
    0.2277  -10.1535   16.3690 N   0  0  0  0  0  0  0  0  0  0  0  0
    8.2327   -7.5401   17.6323 C   0  0  0  0  0  0  0  0  0  0  0  0
    3.9837   -8.6255   15.8973 C   0  0  0  0  0  0  0  0  0  0  0  0
   10.1496   -3.1904   16.9551 C   0  0  0  0  0  0  0  0  0  0  0  0
    0.7758  -11.0526   18.4694 C   0  0  0  0  0  0  0  0  0  0  0  0
    6.9807   -8.4496   17.2202 C   0  0  0  0  0  0  0  0  0  0  0  0
    4.9590   -9.1632   15.1202 C   0  0  0  0  0  0  0  0  0  0  0  0
   10.8032   -3.6850   19.0716 N   0  0  0  0  0  0  0  0  0  0  0  0
   11.2738   -4.3494   21.1653 C   0  0  0  0  0  0  0  0  0  0  0  0
    3.7231   -9.5600   17.0132 N   0  0  0  0  0  0  0  0  0  0  0  0
    8.1998   -6.4308   16.7577 N   0  0  0  0  0  0  0  0  0  0  0  0
    2.0779  -10.6778   18.3793 C   0  0  0  0  0  0  0  0  0  0  0  0
   11.3488   -3.2965   20.2859 N   0  0  0  0  0  0  0  0  0  0  0  0
    1.5120   -9.6974   16.2555 N   0  0  0  0  0  0  0  0  0  0  0  0
    2.4345   -9.9737   17.2096 C   0  0  0  0  0  0  0  0  0  0  0  0
   10.8093   -2.8986   18.1131 N   0  0  0  0  0  0  0  0  0  0  0  0
    9.3926   -4.2576   16.6217 C   0  0  0  0  0  0  0  0  0  0  0  0
    7.1674   -6.5174   15.8372 C   0  0  0  0  0  0  0  0  0  0  0  0
   10.7026   -5.4573   20.5074 C   0  0  0  0  0  0  0  0  0  0  0  0
  1  7  1  0
  1  8  4  0
  1 10  4  0
  2 11  4  0
  2 15  4  0
  3  6  1  0
  3 16  1  0
  4  5  1  0
  4 13  1  0
  4 17  1  0
  5 16  1  0
  5 28  1  0
  6 20  1  0
  7 12  2  0
  8 18  4  0
  8 29  4  0
  9 28  2  0
 10 21  1  0
 10 27  4  0
 11 24  4  0
 12 16  1  0
 12 21  1  0
 13 17  1  0
 13 20  1  0
 14 26  4  0
 14 27  4  0
 15 22  4  0
 18 23  4  0
 18 26  4  0
 19 23  4  0
 19 29  4  0
 20 25  1  0
 21 28  1  0
 22 25  4  0
 24 25  4  0
M  END
$$$$

 Created by Python create_sdf_string function

 29 41  0  0  0  0  0  0  0  0999 V2000
    9.7742   -5.8300   18.4412 C   0  0  0  0  0  0  0  0  0  0  0  0
   -0.3024  -10.9507   17.5180 N   0  0  0  0  0  0  0  0  0  0  0  0
    5.8107   -8.8973   18.1254 C   0  0  0  0  0  0  0  0  0  0  0  0
    5.1541   -8.0877   15.5801 C   0  0  0  0  0  0  0  0  0  0  0  0
    6.4117   -7.5965   15.9004 Cl  0  0  0  0  0  0  0  0  0  0  0  0
    4.7129   -9.8187   17.6930 C   0  0  0  0  0  0  0  0  0  0  0  0
    9.1996   -7.1976   18.5531 C   0  0  0  0  0  0  0  0  0  0  0  0
   10.1474   -5.0740   19.2178 C   0  0  0  0  0  0  0  0  0  0  0  0
    6.9228   -5.6341   15.0114 O   0  0  0  0  0  0  0  0  0  0  0  0
    8.9982   -5.5756   17.2586 C   0  0  0  0  0  0  0  0  0  0  0  0
    0.1440  -10.1037   16.2726 N   0  0  0  0  0  0  0  0  0  0  0  0
    8.1320   -7.6245   17.6018 C   0  0  0  0  0  0  0  0  0  0  0  0
    3.8398   -8.5185   15.9648 C   0  0  0  0  0  0  0  0  0  0  0  0
   10.0320   -3.1425   16.9901 C   0  0  0  0  0  0  0  0  0  0  0  0
    0.8639  -11.1077   18.5436 C   0  0  0  0  0  0  0  0  0  0  0  0
    7.0976   -8.4170   17.3595 C   0  0  0  0  0  0  0  0  0  0  0  0
    5.0350   -9.2395   15.1408 C   0  0  0  0  0  0  0  0  0  0  0  0
   11.3752   -4.3214   21.0275 C   0  0  0  0  0  0  0  0  0  0  0  0
    3.8518   -9.4351   16.9771 N   0  0  0  0  0  0  0  0  0  0  0  0
    8.1026   -6.4588   16.6756 N   0  0  0  0  0  0  0  0  0  0  0  0
    2.0216  -10.5449   18.3178 C   0  0  0  0  0  0  0  0  0  0  0  0
   11.5318   -3.1561   20.1989 N   0  0  0  0  0  0  0  0  0  0  0  0
    1.2574   -9.7560   16.2486 N   0  0  0  0  0  0  0  0  0  0  0  0
    2.2690   -9.9679   17.0941 C   0  0  0  0  0  0  0  0  0  0  0  0
   10.6938   -2.8781   17.9493 N   0  0  0  0  0  0  0  0  0  0  0  0
    7.3819   -6.5231   15.8055 C   0  0  0  0  0  0  0  0  0  0  0  0
   10.7389   -5.5032   20.6110 C   0  0  0  0  0  0  0  0  0  0  0  0
   10.7623   -3.6741   18.9977 He  0  0  0  0  0  0  0  0  0  0  0  0
    9.3862   -4.3031   16.5042 He  0  0  0  0  0  0  0  0  0  0  0  0
  1  4  4  0
  1  6  2  0
  1  7  1  0
  1  8  4  0
  1 10  4  0
  1 17  2  0
  2 11  4  0
  2 15  4  0
  3  5  2  0
  3  6  1  0
  3 16  1  0
  3 23  4  0
  4  5  1  0
  4 16  4  0
  4 17  1  0
  4 24  3  0
  5 16  1  0
  5 26  1  0
  6 18  1  0
  6 19  1  0
  7 12  2  0
  8  9  2  0
  8 18  3  0
  8 20  1  0
  8 27  4  0
  9 15  1  0
 10 20  1  0
 11 23  4  0
 12 16  1  0
 12 20  1  0
 13 17  1  0
 13 19  1  0
 14 25  4  0
 15 21  4  0
 17 21  3  0
 18 27  4  0
 19 24  1  0
 21 23  2  0
 21 24  4  0
 22 23  4  0
 23 24  4  0
M  END
$$$$

 Created by Python create_sdf_string function

 29 35  0  0  0  0  0  0  0  0999 V2000
    9.5972   -5.8476   18.3899 C   0  0  0  0  0  0  0  0  0  0  0  0
   -0.1787  -10.8966   17.5138 N   0  0  0  0  0  0  0  0  0  0  0  0
    5.8151   -8.8597   17.9736 C   0  0  0  0  0  0  0  0  0  0  0  0
    5.2280   -7.9989   15.5837 C   0  0  0  0  0  0  0  0  0  0  0  0
    6.4935   -7.6954   15.9560 N   0  0  0  0  0  0  0  0  0  0  0  0
    4.7877   -9.8225   17.7126 C   0  0  0  0  0  0  0  0  0  0  0  0
    9.1954   -7.2282   18.6053 C   0  0  0  0  0  0  0  0  0  0  0  0
   10.3178   -5.0656   19.1808 C   0  0  0  0  0  0  0  0  0  0  0  0
    6.9839   -5.6323   14.9561 O   0  0  0  0  0  0  0  0  0  0  0  0
    9.0767   -5.4514   17.1692 C   0  0  0  0  0  0  0  0  0  0  0  0
    0.1231  -10.2056   16.3851 N   0  0  0  0  0  0  0  0  0  0  0  0
    8.1618   -7.5268   17.6221 C   0  0  0  0  0  0  0  0  0  0  0  0
    3.9114   -8.6005   15.8899 C   0  0  0  0  0  0  0  0  0  0  0  0
   10.0721   -3.1965   16.8824 C   0  0  0  0  0  0  0  0  0  0  0  0
    0.7655  -11.0981   18.4917 C   0  0  0  0  0  0  0  0  0  0  0  0
    6.9687   -8.4240   17.1990 C   0  0  0  0  0  0  0  0  0  0  0  0
    4.9329   -9.1904   15.1415 C   0  0  0  0  0  0  0  0  0  0  0  0
   10.7742   -3.6998   19.0103 C   0  0  0  0  0  0  0  0  0  0  0  0
   11.3834   -4.3111   21.0736 C   0  0  0  0  0  0  0  0  0  0  0  0
    3.6256   -9.4419   16.9929 N   0  0  0  0  0  0  0  0  0  0  0  0
    8.1844   -6.4296   16.6966 N   0  0  0  0  0  0  0  0  0  0  0  0
    2.0124  -10.6242   18.3047 C   0  0  0  0  0  0  0  0  0  0  0  0
   11.4032   -3.2963   20.1847 N   0  0  0  0  0  0  0  0  0  0  0  0
    1.3730   -9.7099   16.2468 N   0  0  0  0  0  0  0  0  0  0  0  0
    2.3427   -9.9086   17.1656 C   0  0  0  0  0  0  0  0  0  0  0  0
   10.6988   -2.8956   18.0370 N   0  0  0  0  0  0  0  0  0  0  0  0
    9.3523   -4.2762   16.5503 C   0  0  0  0  0  0  0  0  0  0  0  0
    7.2160   -6.4871   15.7872 C   0  0  0  0  0  0  0  0  0  0  0  0
   10.7172   -5.4312   20.5131 C   0  0  0  0  0  0  0  0  0  0  0  0
  1  7  1  0
  1  8  4  0
  1 10  4  0
  2 11  4  0
  2 15  4  0
  3  6  1  0
  3 16  1  0
  4  5  1  0
  4 13  1  0
  4 17  1  0
  5 16  1  0
  5 28  1  0
  6 20  1  0
  7 12  2  0
  8 18  4  0
  8 29  4  0
  9 28  2  0
 10 21  1  0
 10 27  4  0
 11 24  4  0
 12 16  1  0
 12 21  1  0
 13 17  1  0
 13 20  1  0
 14 26  4  0
 14 27  4  0
 15 22  4  0
 18 23  4  0
 18 26  4  0
 19 23  4  0
 19 29  4  0
 20 25  1  0
 21 28  1  0
 22 25  4  0
 24 25  4  0
M  END
$$$$

 Created by Python create_sdf_string function

 29 42  0  0  0  0  0  0  0  0999 V2000
    9.5677   -5.7062   18.2728 C   0  0  0  0  0  0  0  0  0  0  0  0
   -0.2330  -11.0016   17.5140 N   0  0  0  0  0  0  0  0  0  0  0  0
    5.9371   -8.8472   17.9381 C   0  0  0  0  0  0  0  0  0  0  0  0
    5.3124   -8.0924   15.5283 C   0  0  0  0  0  0  0  0  0  0  0  0
    6.4632   -7.5930   15.8841 C   0  0  0  0  0  0  0  0  0  0  0  0
    4.8440   -9.8541   17.6878 C   0  0  0  0  0  0  0  0  0  0  0  0
    9.1734   -7.2362   18.6522 C   0  0  0  0  0  0  0  0  0  0  0  0
   10.3934   -5.1380   19.1864 C   0  0  0  0  0  0  0  0  0  0  0  0
    6.7793   -5.5038   15.1598 O   0  0  0  0  0  0  0  0  0  0  0  0
    9.1510   -5.6142   17.2298 C   0  0  0  0  0  0  0  0  0  0  0  0
    0.1375  -10.3570   16.3719 N   0  0  0  0  0  0  0  0  0  0  0  0
    3.8649   -8.5716   15.9801 C   0  0  0  0  0  0  0  0  0  0  0  0
   10.0982   -3.1169   16.9290 C   0  0  0  0  0  0  0  0  0  0  0  0
    0.7951  -11.1102   18.4404 C   0  0  0  0  0  0  0  0  0  0  0  0
    7.0659   -8.4285   17.1129 C   0  0  0  0  0  0  0  0  0  0  0  0
    5.0508   -9.1927   15.1372 C   0  0  0  0  0  0  0  0  0  0  0  0
   10.7998   -3.6765   19.0152 C   0  0  0  0  0  0  0  0  0  0  0  0
   11.3819   -4.2654   21.2606 C   0  0  0  0  0  0  0  0  0  0  0  0
    3.4852   -9.5656   16.9375 N   0  0  0  0  0  0  0  0  0  0  0  0
    8.2984   -6.3042   16.6937 F   0  0  0  0  0  0  0  0  0  0  0  0
    2.0686  -10.5631   18.2556 C   0  0  0  0  0  0  0  0  0  0  0  0
   11.4152   -3.2401   20.2981 N   0  0  0  0  0  0  0  0  0  0  0  0
    1.3142   -9.6429   16.2108 N   0  0  0  0  0  0  0  0  0  0  0  0
    2.4367   -9.7980   17.0665 C   0  0  0  0  0  0  0  0  0  0  0  0
   10.6318   -2.8979   18.0315 N   0  0  0  0  0  0  0  0  0  0  0  0
    9.3267   -4.3088   16.4504 C   0  0  0  0  0  0  0  0  0  0  0  0
    7.2556   -6.2856   15.7116 C   0  0  0  0  0  0  0  0  0  0  0  0
   10.7170   -5.3351   20.4121 C   0  0  0  0  0  0  0  0  0  0  0  0
    8.1273   -7.4824   17.7282 He  0  0  0  0  0  0  0  0  0  0  0  0
  1  7  1  0
  1  8  4  0
  1 10  4  0
  1 26  2  0
  2 11  4  0
  2 14  4  0
  3  6  1  0
  3 15  1  0
  4  5  1  0
  4 12  1  0
  4 16  1  0
  5 15  1  0
  5 27  1  0
  6 14  2  0
  6 19  1  0
  7 12  4  0
  7 19  2  0
  8 17  4  0
  9 16  2  0
  9 27  2  0
 10 11  1  0
 10 20  1  0
 10 26  4  0
 11 15  3  0
 11 23  4  0
 12 15  2  0
 12 16  1  0
 12 19  2  0
 13 14  2  0
 13 23  1  0
 13 25  4  0
 13 26  4  0
 14 21  3  0
 16 26  2  0
 17 25  4  0
 18 22  4  0
 18 28  4  0
 19 24  2  0
 20 22  2  0
 20 27  1  0
 21 24  4  0
 23 24  4  0
M  END
$$$$

 Created by Python create_sdf_string function

 29 35  0  0  0  0  0  0  0  0999 V2000
    9.6378   -5.7899   18.3640 C   0  0  0  0  0  0  0  0  0  0  0  0
   -0.1531  -10.9769   17.4870 N   0  0  0  0  0  0  0  0  0  0  0  0
    5.9484   -8.8557   17.9158 C   0  0  0  0  0  0  0  0  0  0  0  0
    5.1591   -7.9422   15.5995 C   0  0  0  0  0  0  0  0  0  0  0  0
    6.5604   -7.6486   15.8858 C   0  0  0  0  0  0  0  0  0  0  0  0
    4.8456   -9.8048   17.6643 C   0  0  0  0  0  0  0  0  0  0  0  0
    9.1576   -7.1588   18.6219 C   0  0  0  0  0  0  0  0  0  0  0  0
   10.3308   -5.0219   19.2184 C   0  0  0  0  0  0  0  0  0  0  0  0
    6.8505   -5.5210   15.0897 O   0  0  0  0  0  0  0  0  0  0  0  0
    9.1226   -5.4211   17.1429 C   0  0  0  0  0  0  0  0  0  0  0  0
    0.1365  -10.2767   16.3858 N   0  0  0  0  0  0  0  0  0  0  0  0
    8.1629   -7.4945   17.6368 C   0  0  0  0  0  0  0  0  0  0  0  0
    3.9506   -8.5587   15.8718 C   0  0  0  0  0  0  0  0  0  0  0  0
   10.1062   -3.1857   16.9202 C   0  0  0  0  0  0  0  0  0  0  0  0
    0.7994  -11.1190   18.4604 C   0  0  0  0  0  0  0  0  0  0  0  0
    7.0528   -8.3891   17.0949 C   0  0  0  0  0  0  0  0  0  0  0  0
    4.9579   -9.1419   15.1566 C   0  0  0  0  0  0  0  0  0  0  0  0
   10.7962   -3.6635   19.0815 C   0  0  0  0  0  0  0  0  0  0  0  0
   11.3663   -4.3147   21.1695 C   0  0  0  0  0  0  0  0  0  0  0  0
    3.6037   -9.4719   16.9611 N   0  0  0  0  0  0  0  0  0  0  0  0
    8.2144   -6.3961   16.6829 N   0  0  0  0  0  0  0  0  0  0  0  0
    2.0204  -10.6144   18.2889 C   0  0  0  0  0  0  0  0  0  0  0  0
   11.3959   -3.2818   20.2758 N   0  0  0  0  0  0  0  0  0  0  0  0
    1.3674   -9.7169   16.2370 N   0  0  0  0  0  0  0  0  0  0  0  0
    2.3615   -9.9191   17.1414 C   0  0  0  0  0  0  0  0  0  0  0  0
   10.7303   -2.9000   18.0712 N   0  0  0  0  0  0  0  0  0  0  0  0
    9.4152   -4.2505   16.5042 C   0  0  0  0  0  0  0  0  0  0  0  0
    7.1945   -6.3815   15.7796 C   0  0  0  0  0  0  0  0  0  0  0  0
   10.7473   -5.4112   20.5073 C   0  0  0  0  0  0  0  0  0  0  0  0
  1  7  1  0
  1  8  4  0
  1 10  4  0
  2 11  4  0
  2 15  4  0
  3  6  1  0
  3 16  1  0
  4  5  1  0
  4 13  1  0
  4 17  1  0
  5 16  1  0
  5 28  1  0
  6 20  1  0
  7 12  2  0
  8 18  4  0
  8 29  4  0
  9 28  2  0
 10 21  1  0
 10 27  4  0
 11 24  4  0
 12 16  1  0
 12 21  1  0
 13 17  1  0
 13 20  1  0
 14 26  4  0
 14 27  4  0
 15 22  4  0
 18 23  4  0
 18 26  4  0
 19 23  4  0
 19 29  4  0
 20 25  1  0
 21 28  1  0
 22 25  4  0
 24 25  4  0
M  END
$$$$

 Created by Python create_sdf_string function

 29 44  0  0  0  0  0  0  0  0999 V2000
    9.5777   -5.7451   18.3164 C   0  0  0  0  0  0  0  0  0  0  0  0
   -0.1576  -10.9558   17.4740 N   0  0  0  0  0  0  0  0  0  0  0  0
    5.8725   -8.9615   17.9926 C   0  0  0  0  0  0  0  0  0  0  0  0
    5.3185   -7.9423   15.5868 C   0  0  0  0  0  0  0  0  0  0  0  0
    6.6605   -7.7850   15.8510 C   0  0  0  0  0  0  0  0  0  0  0  0
    4.9237   -9.6845   17.7626 C   0  0  0  0  0  0  0  0  0  0  0  0
    9.1054   -7.2102   18.7000 C   0  0  0  0  0  0  0  0  0  0  0  0
   10.1947   -5.0194   19.2338 C   0  0  0  0  0  0  0  0  0  0  0  0
    6.7080   -5.4412   15.1309 O   0  0  0  0  0  0  0  0  0  0  0  0
    9.1523   -5.4018   17.0093 C   0  0  0  0  0  0  0  0  0  0  0  0
    0.1228  -10.2684   16.4503 N   0  0  0  0  0  0  0  0  0  0  0  0
    8.1080   -7.4406   17.4652 C   0  0  0  0  0  0  0  0  0  0  0  0
    3.9714   -8.6904   15.9874 C   0  0  0  0  0  0  0  0  0  0  0  0
   10.0366   -3.1677   16.9287 C   0  0  0  0  0  0  0  0  0  0  0  0
    1.0016  -10.9541   18.5699 C   0  0  0  0  0  0  0  0  0  0  0  0
    7.0521   -8.2514   17.0229 C   0  0  0  0  0  0  0  0  0  0  0  0
    4.9217   -9.0816   15.1524 C   0  0  0  0  0  0  0  0  0  0  0  0
   10.6400   -3.5622   19.1198 C   0  0  0  0  0  0  0  0  0  0  0  0
   11.4307   -4.3054   21.1797 C   0  0  0  0  0  0  0  0  0  0  0  0
    3.6253   -9.5130   16.9940 N   0  0  0  0  0  0  0  0  0  0  0  0
    2.0441  -10.6774   18.4537 C   0  0  0  0  0  0  0  0  0  0  0  0
   11.2289   -3.2015   20.2767 N   0  0  0  0  0  0  0  0  0  0  0  0
    2.3571   -9.9836   17.1076 C   0  0  0  0  0  0  0  0  0  0  0  0
   10.8270   -2.8546   18.0760 N   0  0  0  0  0  0  0  0  0  0  0  0
    9.4238   -4.2598   16.6116 C   0  0  0  0  0  0  0  0  0  0  0  0
    7.2367   -6.3045   15.8385 C   0  0  0  0  0  0  0  0  0  0  0  0
   10.6942   -5.5226   20.5533 C   0  0  0  0  0  0  0  0  0  0  0  0
    8.1641   -6.3703   16.6570 He  0  0  0  0  0  0  0  0  0  0  0  0
    1.2000   -9.8413   16.2468 He  0  0  0  0  0  0  0  0  0  0  0  0
  1  4  2  0
  1  7  1  0
  1  8  4  0
  1 10  4  0
  1 25  4  0
  2 11  4  0
  2 15  4  0
  3  6  1  0
  3 15  4  0
  3 16  1  0
  4  5  1  0
  4 13  1  0
  4 17  1  0
  5 16  1  0
  5 26  1  0
  6 11  2  0
  6 20  1  0
  7 12  2  0
  7 21  2  0
  7 24  4  0
  8 17  3  0
  8 18  4  0
  8 20  1  0
  8 27  4  0
  9 26  2  0
 10 20  1  0
 10 25  4  0
 12 16  1  0
 12 23  3  0
 13 17  1  0
 13 20  1  0
 13 23  1  0
 14 24  4  0
 14 25  4  0
 15 16  4  0
 15 21  4  0
 18 20  3  0
 18 22  4  0
 18 24  4  0
 19 22  4  0
 19 27  4  0
 20 23  1  0
 21 23  4  0
 21 24  2  0
M  END
$$$$

 Created by Python create_sdf_string function

 29 35  0  0  0  0  0  0  0  0999 V2000
    9.5692   -5.8037   18.3827 C   0  0  0  0  0  0  0  0  0  0  0  0
   -0.1269  -10.9150   17.5867 N   0  0  0  0  0  0  0  0  0  0  0  0
    5.9439   -8.8617   17.8618 C   0  0  0  0  0  0  0  0  0  0  0  0
    5.1671   -7.9278   15.5706 C   0  0  0  0  0  0  0  0  0  0  0  0
    6.6140   -7.7051   15.8144 C   0  0  0  0  0  0  0  0  0  0  0  0
    4.8578   -9.7312   17.7348 C   0  0  0  0  0  0  0  0  0  0  0  0
    9.1068   -7.1828   18.6093 C   0  0  0  0  0  0  0  0  0  0  0  0
   10.2802   -5.0217   19.1955 C   0  0  0  0  0  0  0  0  0  0  0  0
    6.8167   -5.5043   15.0696 O   0  0  0  0  0  0  0  0  0  0  0  0
    9.0845   -5.3896   17.1474 C   0  0  0  0  0  0  0  0  0  0  0  0
    0.1388  -10.2893   16.4334 N   0  0  0  0  0  0  0  0  0  0  0  0
    8.1512   -7.4997   17.5769 C   0  0  0  0  0  0  0  0  0  0  0  0
    3.9506   -8.6153   15.8854 C   0  0  0  0  0  0  0  0  0  0  0  0
   10.1509   -3.1665   16.9287 C   0  0  0  0  0  0  0  0  0  0  0  0
    0.8316  -11.0824   18.5343 C   0  0  0  0  0  0  0  0  0  0  0  0
    7.0506   -8.4007   17.0769 C   0  0  0  0  0  0  0  0  0  0  0  0
    4.8616   -9.0776   15.1321 C   0  0  0  0  0  0  0  0  0  0  0  0
   10.7400   -3.6383   19.0855 C   0  0  0  0  0  0  0  0  0  0  0  0
   11.3142   -4.3324   21.1575 C   0  0  0  0  0  0  0  0  0  0  0  0
    3.6620   -9.4619   17.0206 N   0  0  0  0  0  0  0  0  0  0  0  0
    8.2086   -6.3656   16.6429 N   0  0  0  0  0  0  0  0  0  0  0  0
    2.0742  -10.6246   18.3439 C   0  0  0  0  0  0  0  0  0  0  0  0
   11.3060   -3.2581   20.3013 N   0  0  0  0  0  0  0  0  0  0  0  0
    1.3852   -9.7807   16.2398 C   0  0  0  0  0  0  0  0  0  0  0  0
    2.3787   -9.9442   17.1880 C   0  0  0  0  0  0  0  0  0  0  0  0
   10.6952   -2.8196   18.1141 N   0  0  0  0  0  0  0  0  0  0  0  0
    9.4519   -4.2325   16.5477 C   0  0  0  0  0  0  0  0  0  0  0  0
    7.2129   -6.3848   15.7611 C   0  0  0  0  0  0  0  0  0  0  0  0
   10.6735   -5.4493   20.5151 C   0  0  0  0  0  0  0  0  0  0  0  0
  1  7  1  0
  1  8  4  0
  1 10  4  0
  2 11  4  0
  2 15  4  0
  3  6  1  0
  3 16  1  0
  4  5  1  0
  4 13  1  0
  4 17  1  0
  5 16  1  0
  5 28  1  0
  6 20  1  0
  7 12  2  0
  8 18  4  0
  8 29  4  0
  9 28  2  0
 10 21  1  0
 10 27  4  0
 11 24  4  0
 12 16  1  0
 12 21  1  0
 13 17  1  0
 13 20  1  0
 14 26  4  0
 14 27  4  0
 15 22  4  0
 18 23  4  0
 18 26  4  0
 19 23  4  0
 19 29  4  0
 20 25  1  0
 21 28  1  0
 22 25  4  0
 24 25  4  0
M  END
$$$$

 Created by Python create_sdf_string function

 29 40  0  0  0  0  0  0  0  0999 V2000
    9.6275   -5.7556   18.4208 F   0  0  0  0  0  0  0  0  0  0  0  0
   -0.2301  -10.9189   17.5769 N   0  0  0  0  0  0  0  0  0  0  0  0
    6.0208   -9.0493   17.8539 C   0  0  0  0  0  0  0  0  0  0  0  0
    5.1155   -7.9421   15.4626 C   0  0  0  0  0  0  0  0  0  0  0  0
    6.5951   -7.6313   15.7234 C   0  0  0  0  0  0  0  0  0  0  0  0
    4.9423   -9.7028   17.7531 C   0  0  0  0  0  0  0  0  0  0  0  0
    9.0410   -7.1548   18.4757 C   0  0  0  0  0  0  0  0  0  0  0  0
   10.2980   -4.9827   19.2762 C   0  0  0  0  0  0  0  0  0  0  0  0
    9.1618   -5.3987   17.1291 C   0  0  0  0  0  0  0  0  0  0  0  0
    0.1858  -10.1619   16.3045 N   0  0  0  0  0  0  0  0  0  0  0  0
    8.0438   -7.4837   17.6339 C   0  0  0  0  0  0  0  0  0  0  0  0
    3.9692   -8.6438   15.8698 C   0  0  0  0  0  0  0  0  0  0  0  0
   10.0779   -3.1811   17.0266 C   0  0  0  0  0  0  0  0  0  0  0  0
    0.8401  -11.0728   18.6214 C   0  0  0  0  0  0  0  0  0  0  0  0
    6.9680   -8.3131   17.0224 C   0  0  0  0  0  0  0  0  0  0  0  0
    4.9448   -9.0135   15.1217 C   0  0  0  0  0  0  0  0  0  0  0  0
   10.8069   -3.6283   19.1571 C   0  0  0  0  0  0  0  0  0  0  0  0
   11.1816   -4.2982   21.1502 C   0  0  0  0  0  0  0  0  0  0  0  0
    3.6822   -9.3505   17.0108 N   0  0  0  0  0  0  0  0  0  0  0  0
    8.1907   -6.4595   16.6836 N   0  0  0  0  0  0  0  0  0  0  0  0
    2.1100  -10.6918   18.3130 C   0  0  0  0  0  0  0  0  0  0  0  0
   11.3545   -3.3066   20.4103 N   0  0  0  0  0  0  0  0  0  0  0  0
    1.3557   -9.7691   16.2479 C   0  0  0  0  0  0  0  0  0  0  0  0
   10.7044   -2.7613   18.0815 N   0  0  0  0  0  0  0  0  0  0  0  0
    9.3618   -4.1447   16.5227 C   0  0  0  0  0  0  0  0  0  0  0  0
    7.2955   -6.3971   15.7019 C   0  0  0  0  0  0  0  0  0  0  0  0
   10.6097   -5.3404   20.4272 C   0  0  0  0  0  0  0  0  0  0  0  0
    6.9051   -5.5643   15.0717 He  0  0  0  0  0  0  0  0  0  0  0  0
    2.3786  -10.0261   17.1349 He  0  0  0  0  0  0  0  0  0  0  0  0
  1  7  1  0
  1  8  4  0
  1  9  4  0
  1 13  1  0
  2  7  1  0
  2 10  4  0
  2 14  4  0
  2 23  3  0
  3  6  1  0
  3 15  1  0
  4  5  1  0
  4 12  1  0
  4 23  4  0
  5 15  1  0
  5 26  1  0
  6  8  1  0
  6 19  1  0
  6 22  1  0
  7 11  2  0
  8  9  3  0
  8 13  3  0
  8 17  4  0
  8 23  2  0
  8 27  4  0
  9 12  2  0
  9 20  1  0
  9 25  4  0
 10 23  4  0
 11 15  1  0
 11 20  1  0
 12 16  1  0
 12 19  1  0
 13 21  1  0
 13 24  4  0
 13 25  4  0
 14 16  3  0
 17 24  4  0
 18 22  4  0
 18 27  4  0
 20 26  1  0
M  END
$$$$

 Created by Python create_sdf_string function

 29 35  0  0  0  0  0  0  0  0999 V2000
    9.5666   -5.7574   18.3569 C   0  0  0  0  0  0  0  0  0  0  0  0
   -0.1206  -10.8854   17.5776 N   0  0  0  0  0  0  0  0  0  0  0  0
    6.0041   -8.9779   17.7984 C   0  0  0  0  0  0  0  0  0  0  0  0
    5.1115   -7.8922   15.5799 C   0  0  0  0  0  0  0  0  0  0  0  0
    6.6159   -7.6895   15.7562 C   0  0  0  0  0  0  0  0  0  0  0  0
    4.8482   -9.7180   17.7200 C   0  0  0  0  0  0  0  0  0  0  0  0
    9.0938   -7.1340   18.5771 C   0  0  0  0  0  0  0  0  0  0  0  0
   10.2610   -4.9831   19.1942 C   0  0  0  0  0  0  0  0  0  0  0  0
    6.9725   -5.5515   14.9786 O   0  0  0  0  0  0  0  0  0  0  0  0
    9.0723   -5.3941   17.1363 C   0  0  0  0  0  0  0  0  0  0  0  0
    0.1726  -10.2257   16.4297 N   0  0  0  0  0  0  0  0  0  0  0  0
    8.1111   -7.4279   17.5582 C   0  0  0  0  0  0  0  0  0  0  0  0
    3.9840   -8.5827   15.8259 C   0  0  0  0  0  0  0  0  0  0  0  0
   10.1364   -3.1390   16.9813 C   0  0  0  0  0  0  0  0  0  0  0  0
    0.8293  -11.1023   18.5270 C   0  0  0  0  0  0  0  0  0  0  0  0
    7.0139   -8.3786   17.0432 C   0  0  0  0  0  0  0  0  0  0  0  0
    4.8413   -9.1090   15.0892 C   0  0  0  0  0  0  0  0  0  0  0  0
   10.7639   -3.6229   19.1142 C   0  0  0  0  0  0  0  0  0  0  0  0
   11.2313   -4.3247   21.1735 C   0  0  0  0  0  0  0  0  0  0  0  0
    3.6748   -9.4041   17.0226 N   0  0  0  0  0  0  0  0  0  0  0  0
    8.1775   -6.3737   16.6684 N   0  0  0  0  0  0  0  0  0  0  0  0
    2.0856  -10.6501   18.3166 C   0  0  0  0  0  0  0  0  0  0  0  0
   11.3298   -3.2703   20.3361 N   0  0  0  0  0  0  0  0  0  0  0  0
    1.4342   -9.7409   16.2442 C   0  0  0  0  0  0  0  0  0  0  0  0
    2.4083   -9.9308   17.1952 C   0  0  0  0  0  0  0  0  0  0  0  0
   10.7546   -2.8151   18.1321 N   0  0  0  0  0  0  0  0  0  0  0  0
    9.4222   -4.1934   16.5476 C   0  0  0  0  0  0  0  0  0  0  0  0
    7.2497   -6.3990   15.7126 C   0  0  0  0  0  0  0  0  0  0  0  0
   10.6147   -5.4013   20.5026 C   0  0  0  0  0  0  0  0  0  0  0  0
  1  7  1  0
  1  8  4  0
  1 10  4  0
  2 11  4  0
  2 15  4  0
  3  6  1  0
  3 16  1  0
  4  5  1  0
  4 13  1  0
  4 17  1  0
  5 16  1  0
  5 28  1  0
  6 20  1  0
  7 12  2  0
  8 18  4  0
  8 29  4  0
  9 28  2  0
 10 21  1  0
 10 27  4  0
 11 24  4  0
 12 16  1  0
 12 21  1  0
 13 17  1  0
 13 20  1  0
 14 26  4  0
 14 27  4  0
 15 22  4  0
 18 23  4  0
 18 26  4  0
 19 23  4  0
 19 29  4  0
 20 25  1  0
 21 28  1  0
 22 25  4  0
 24 25  4  0
M  END
$$$$

 Created by Python create_sdf_string function

 29 41  0  0  0  0  0  0  0  0999 V2000
    9.5783   -5.7699   18.3971 C   0  0  0  0  0  0  0  0  0  0  0  0
   -0.1746  -11.0244   17.6810 N   0  0  0  0  0  0  0  0  0  0  0  0
    5.1561   -7.8514   15.5507 C   0  0  0  0  0  0  0  0  0  0  0  0
    6.6077   -7.5885   15.7059 C   0  0  0  0  0  0  0  0  0  0  0  0
    4.9058   -9.6923   17.6127 C   0  0  0  0  0  0  0  0  0  0  0  0
    9.0007   -7.0401   18.5305 C   0  0  0  0  0  0  0  0  0  0  0  0
   10.2135   -5.1613   19.1675 C   0  0  0  0  0  0  0  0  0  0  0  0
    7.0924   -5.6062   14.9849 O   0  0  0  0  0  0  0  0  0  0  0  0
    9.0375   -5.4547   17.1021 C   0  0  0  0  0  0  0  0  0  0  0  0
    0.0756  -10.1847   16.4709 N   0  0  0  0  0  0  0  0  0  0  0  0
    8.0943   -7.4112   17.7509 C   0  0  0  0  0  0  0  0  0  0  0  0
    4.1617   -8.6272   15.8032 C   0  0  0  0  0  0  0  0  0  0  0  0
   10.2005   -3.2558   16.9446 C   0  0  0  0  0  0  0  0  0  0  0  0
    0.8411  -11.0126   18.4460 C   0  0  0  0  0  0  0  0  0  0  0  0
    7.0127   -8.5399   16.9999 C   0  0  0  0  0  0  0  0  0  0  0  0
    4.8127   -9.1399   15.0261 C   0  0  0  0  0  0  0  0  0  0  0  0
   10.7457   -3.6668   19.1898 C   0  0  0  0  0  0  0  0  0  0  0  0
   11.2145   -4.2370   21.1667 C   0  0  0  0  0  0  0  0  0  0  0  0
    3.6695   -9.2783   17.1149 N   0  0  0  0  0  0  0  0  0  0  0  0
    8.1927   -6.4162   16.6899 N   0  0  0  0  0  0  0  0  0  0  0  0
    2.2101  -10.7498   18.3178 C   0  0  0  0  0  0  0  0  0  0  0  0
   11.1983   -3.2239   20.2855 N   0  0  0  0  0  0  0  0  0  0  0  0
    1.4623   -9.9207   16.2623 C   0  0  0  0  0  0  0  0  0  0  0  0
    2.4210   -9.8173   17.2696 C   0  0  0  0  0  0  0  0  0  0  0  0
   10.8598   -2.8622   18.1345 N   0  0  0  0  0  0  0  0  0  0  0  0
    9.5907   -4.2003   16.6501 C   0  0  0  0  0  0  0  0  0  0  0  0
    7.2386   -6.2894   15.6695 C   0  0  0  0  0  0  0  0  0  0  0  0
   10.7173   -5.3875   20.4534 C   0  0  0  0  0  0  0  0  0  0  0  0
    5.9177   -9.0180   17.7752 He  0  0  0  0  0  0  0  0  0  0  0  0
  1  6  1  0
  1  7  4  0
  1  9  4  0
  2 10  4  0
  2 14  4  0
  3  4  1  0
  3 12  1  0
  3 16  1  0
  3 23  2  0
  4  6  4  0
  4 12  2  0
  4 15  1  0
  4 27  1  0
  5  9  1  0
  5 11  4  0
  5 19  1  0
  6 11  2  0
  7 17  4  0
  7 28  4  0
  8 19  4  0
  8 27  2  0
  9 11  3  0
  9 26  4  0
 10 23  4  0
 11 15  1  0
 11 20  1  0
 12 16  1  0
 12 19  1  0
 13 25  4  0
 13 26  4  0
 13 27  3  0
 14 21  4  0
 17 22  4  0
 17 25  4  0
 18 22  4  0
 18 27  3  0
 18 28  4  0
 19 24  1  0
 20 27  1  0
 21 24  4  0
 23 24  4  0
M  END
$$$$

 Created by Python create_sdf_string function

 29 35  0  0  0  0  0  0  0  0999 V2000
    9.5528   -5.7844   18.3820 C   0  0  0  0  0  0  0  0  0  0  0  0
   -0.0957  -10.9456   17.6561 N   0  0  0  0  0  0  0  0  0  0  0  0
    5.9895   -9.0070   17.7466 C   0  0  0  0  0  0  0  0  0  0  0  0
    5.1173   -7.8618   15.5605 C   0  0  0  0  0  0  0  0  0  0  0  0
    6.6085   -7.6978   15.7066 C   0  0  0  0  0  0  0  0  0  0  0  0
    4.8692   -9.7064   17.6695 C   0  0  0  0  0  0  0  0  0  0  0  0
    9.0333   -7.1066   18.6252 C   0  0  0  0  0  0  0  0  0  0  0  0
   10.2700   -5.0197   19.2176 C   0  0  0  0  0  0  0  0  0  0  0  0
    7.0768   -5.5485   14.9357 O   0  0  0  0  0  0  0  0  0  0  0  0
    9.0951   -5.4125   17.1489 C   0  0  0  0  0  0  0  0  0  0  0  0
    0.1854  -10.2723   16.4994 N   0  0  0  0  0  0  0  0  0  0  0  0
    8.1032   -7.4205   17.5627 C   0  0  0  0  0  0  0  0  0  0  0  0
    4.0082   -8.5176   15.8712 C   0  0  0  0  0  0  0  0  0  0  0  0
   10.2584   -3.1803   16.9200 C   0  0  0  0  0  0  0  0  0  0  0  0
    0.8967  -11.1309   18.5489 C   0  0  0  0  0  0  0  0  0  0  0  0
    7.0325   -8.4289   16.9828 C   0  0  0  0  0  0  0  0  0  0  0  0
    4.7965   -9.0622   15.0694 C   0  0  0  0  0  0  0  0  0  0  0  0
   10.7647   -3.6473   19.1120 C   0  0  0  0  0  0  0  0  0  0  0  0
   11.2183   -4.2971   21.1646 C   0  0  0  0  0  0  0  0  0  0  0  0
    3.6817   -9.3419   17.0464 N   0  0  0  0  0  0  0  0  0  0  0  0
    8.1681   -6.3735   16.7021 N   0  0  0  0  0  0  0  0  0  0  0  0
    2.1138  -10.6462   18.3489 C   0  0  0  0  0  0  0  0  0  0  0  0
   11.2635   -3.2440   20.3166 N   0  0  0  0  0  0  0  0  0  0  0  0
    1.4284   -9.7683   16.2990 C   0  0  0  0  0  0  0  0  0  0  0  0
    2.4337   -9.9182   17.2215 C   0  0  0  0  0  0  0  0  0  0  0  0
   10.8121   -2.8580   18.1203 N   0  0  0  0  0  0  0  0  0  0  0  0
    9.5139   -4.2520   16.5566 C   0  0  0  0  0  0  0  0  0  0  0  0
    7.2738   -6.4173   15.6984 C   0  0  0  0  0  0  0  0  0  0  0  0
   10.6496   -5.4056   20.5158 C   0  0  0  0  0  0  0  0  0  0  0  0
  1  7  1  0
  1  8  4  0
  1 10  4  0
  2 11  4  0
  2 15  4  0
  3  6  1  0
  3 16  1  0
  4  5  1  0
  4 13  1  0
  4 17  1  0
  5 16  1  0
  5 28  1  0
  6 20  1  0
  7 12  2  0
  8 18  4  0
  8 29  4  0
  9 28  2  0
 10 21  1  0
 10 27  4  0
 11 24  4  0
 12 16  1  0
 12 21  1  0
 13 17  1  0
 13 20  1  0
 14 26  4  0
 14 27  4  0
 15 22  4  0
 18 23  4  0
 18 26  4  0
 19 23  4  0
 19 29  4  0
 20 25  1  0
 21 28  1  0
 22 25  4  0
 24 25  4  0
M  END
$$$$

 Created by Python create_sdf_string function

 29 42  0  0  0  0  0  0  0  0999 V2000
    9.6026   -5.7943   18.3854 C   0  0  0  0  0  0  0  0  0  0  0  0
   -0.0155  -10.9789   17.6775 N   0  0  0  0  0  0  0  0  0  0  0  0
    5.9926   -8.9304   17.6655 C   0  0  0  0  0  0  0  0  0  0  0  0
    5.1121   -7.9396   15.5373 C   0  0  0  0  0  0  0  0  0  0  0  0
    6.6216   -7.7363   15.6508 C   0  0  0  0  0  0  0  0  0  0  0  0
    4.9540   -9.7940   17.5652 C   0  0  0  0  0  0  0  0  0  0  0  0
    8.9515   -7.1632   18.6032 C   0  0  0  0  0  0  0  0  0  0  0  0
   10.3722   -4.8924   19.2859 C   0  0  0  0  0  0  0  0  0  0  0  0
    7.0421   -5.5346   14.8949 O   0  0  0  0  0  0  0  0  0  0  0  0
    9.0465   -5.3645   17.2003 C   0  0  0  0  0  0  0  0  0  0  0  0
    0.2678  -10.1740   16.4882 N   0  0  0  0  0  0  0  0  0  0  0  0
    8.0850   -7.3596   17.5520 C   0  0  0  0  0  0  0  0  0  0  0  0
    3.9811   -8.6361   15.9441 C   0  0  0  0  0  0  0  0  0  0  0  0
   10.0932   -3.1753   16.8300 C   0  0  0  0  0  0  0  0  0  0  0  0
    0.8487  -11.0509   18.5108 C   0  0  0  0  0  0  0  0  0  0  0  0
    6.9396   -8.4508   16.9301 C   0  0  0  0  0  0  0  0  0  0  0  0
    4.6704   -9.1136   15.1222 C   0  0  0  0  0  0  0  0  0  0  0  0
   10.8265   -3.6327   19.2476 C   0  0  0  0  0  0  0  0  0  0  0  0
   11.2222   -4.3508   21.0151 C   0  0  0  0  0  0  0  0  0  0  0  0
    3.6153   -9.3079   17.0627 N   0  0  0  0  0  0  0  0  0  0  0  0
    8.1751   -6.5289   16.7795 N   0  0  0  0  0  0  0  0  0  0  0  0
    2.1727  -10.6446   18.3616 C   0  0  0  0  0  0  0  0  0  0  0  0
    1.3569   -9.8325   16.2657 C   0  0  0  0  0  0  0  0  0  0  0  0
    2.3284   -9.8522   17.2005 C   0  0  0  0  0  0  0  0  0  0  0  0
   10.7889   -2.9782   18.1429 N   0  0  0  0  0  0  0  0  0  0  0  0
    9.4483   -4.1708   16.5561 C   0  0  0  0  0  0  0  0  0  0  0  0
    7.3001   -6.3730   15.6192 C   0  0  0  0  0  0  0  0  0  0  0  0
   10.7067   -5.3203   20.5041 C   0  0  0  0  0  0  0  0  0  0  0  0
   11.1751   -3.1794   20.3323 He  0  0  0  0  0  0  0  0  0  0  0  0
  1  6  2  0
  1  7  3  0
  1  8  4  0
  1 10  4  0
  2 15  4  0
  3  6  1  0
  3 16  1  0
  4  5  1  0
  4 13  1  0
  4 17  1  0
  5 16  1  0
  5 27  1  0
  6 17  2  0
  6 20  1  0
  7 12  2  0
  8 18  4  0
  8 21  4  0
  8 28  4  0
  9 21  2  0
  9 27  2  0
 10 15  1  0
 10 21  1  0
 10 24  2  0
 10 26  4  0
 11 21  2  0
 11 23  4  0
 12 16  1  0
 12 21  1  0
 13 17  1  0
 13 20  1  0
 14 25  4  0
 14 26  4  0
 15 22  4  0
 19 23  3  0
 19 25  3  0
 19 28  4  0
 20 26  2  0
 21 25  1  0
 21 27  1  0
 22 24  4  0
 23 24  4  0
 25 26  2  0
M  END
$$$$

 Created by Python create_sdf_string function

 29 35  0  0  0  0  0  0  0  0999 V2000
    9.5379   -5.7765   18.3986 C   0  0  0  0  0  0  0  0  0  0  0  0
   -0.0371  -10.9350   17.6574 N   0  0  0  0  0  0  0  0  0  0  0  0
    6.0128   -8.9375   17.7228 C   0  0  0  0  0  0  0  0  0  0  0  0
    5.1057   -7.8982   15.5587 C   0  0  0  0  0  0  0  0  0  0  0  0
    6.6443   -7.7323   15.6545 C   0  0  0  0  0  0  0  0  0  0  0  0
    4.9037   -9.7891   17.6217 C   0  0  0  0  0  0  0  0  0  0  0  0
    9.0379   -7.1166   18.6290 C   0  0  0  0  0  0  0  0  0  0  0  0
   10.2691   -5.0095   19.2177 C   0  0  0  0  0  0  0  0  0  0  0  0
    7.0655   -5.5560   14.8807 O   0  0  0  0  0  0  0  0  0  0  0  0
    9.0703   -5.3943   17.1662 C   0  0  0  0  0  0  0  0  0  0  0  0
    0.2131  -10.2729   16.5186 N   0  0  0  0  0  0  0  0  0  0  0  0
    8.1105   -7.4137   17.5224 C   0  0  0  0  0  0  0  0  0  0  0  0
    3.9449   -8.4735   15.9096 C   0  0  0  0  0  0  0  0  0  0  0  0
   10.1802   -3.1842   16.9059 C   0  0  0  0  0  0  0  0  0  0  0  0
    0.9194  -11.1094   18.5784 C   0  0  0  0  0  0  0  0  0  0  0  0
    7.0639   -8.4170   16.9620 C   0  0  0  0  0  0  0  0  0  0  0  0
    4.7241   -9.0263   15.0894 C   0  0  0  0  0  0  0  0  0  0  0  0
   10.7440   -3.6449   19.0723 C   0  0  0  0  0  0  0  0  0  0  0  0
   11.2499   -4.2649   21.1446 C   0  0  0  0  0  0  0  0  0  0  0  0
    3.6600   -9.3672   17.0556 N   0  0  0  0  0  0  0  0  0  0  0  0
    8.1690   -6.3596   16.6801 N   0  0  0  0  0  0  0  0  0  0  0  0
    2.1297  -10.6115   18.3687 C   0  0  0  0  0  0  0  0  0  0  0  0
   11.2852   -3.2240   20.2966 N   0  0  0  0  0  0  0  0  0  0  0  0
    1.4312   -9.7244   16.3072 C   0  0  0  0  0  0  0  0  0  0  0  0
    2.4174   -9.9010   17.2356 C   0  0  0  0  0  0  0  0  0  0  0  0
   10.7618   -2.8918   18.0926 N   0  0  0  0  0  0  0  0  0  0  0  0
    9.4103   -4.2392   16.5414 C   0  0  0  0  0  0  0  0  0  0  0  0
    7.2751   -6.4146   15.6490 C   0  0  0  0  0  0  0  0  0  0  0  0
   10.6844   -5.3821   20.5111 C   0  0  0  0  0  0  0  0  0  0  0  0
  1  7  1  0
  1  8  4  0
  1 10  4  0
  2 11  4  0
  2 15  4  0
  3  6  1  0
  3 16  1  0
  4  5  1  0
  4 13  1  0
  4 17  1  0
  5 16  1  0
  5 28  1  0
  6 20  1  0
  7 12  2  0
  8 18  4  0
  8 29  4  0
  9 28  2  0
 10 21  1  0
 10 27  4  0
 11 24  4  0
 12 16  1  0
 12 21  1  0
 13 17  1  0
 13 20  1  0
 14 26  4  0
 14 27  4  0
 15 22  4  0
 18 23  4  0
 18 26  4  0
 19 23  4  0
 19 29  4  0
 20 25  1  0
 21 28  1  0
 22 25  4  0
 24 25  4  0
M  END
$$$$

 Created by Python create_sdf_string function

 29 39  0  0  0  0  0  0  0  0999 V2000
    9.5141   -5.7824   18.5272 C   0  0  0  0  0  0  0  0  0  0  0  0
   -0.0609  -10.9350   17.5401 N   0  0  0  0  0  0  0  0  0  0  0  0
    6.0023   -8.9087   17.7177 C   0  0  0  0  0  0  0  0  0  0  0  0
    5.0244   -7.8856   15.6848 C   0  0  0  0  0  0  0  0  0  0  0  0
    6.6148   -7.7329   15.7041 C   0  0  0  0  0  0  0  0  0  0  0  0
    4.8777   -9.8587   17.5513 C   0  0  0  0  0  0  0  0  0  0  0  0
    8.9630   -7.0704   18.6421 C   0  0  0  0  0  0  0  0  0  0  0  0
   10.3248   -5.1031   19.2622 C   0  0  0  0  0  0  0  0  0  0  0  0
    7.0327   -5.5741   14.8194 O   0  0  0  0  0  0  0  0  0  0  0  0
    9.1341   -5.4041   17.1820 C   0  0  0  0  0  0  0  0  0  0  0  0
    0.2367  -10.2336   16.5402 N   0  0  0  0  0  0  0  0  0  0  0  0
    8.0714   -7.4390   17.6126 C   0  0  0  0  0  0  0  0  0  0  0  0
    3.9646   -8.4001   15.9507 C   0  0  0  0  0  0  0  0  0  0  0  0
   10.1901   -3.1129   16.8943 C   0  0  0  0  0  0  0  0  0  0  0  0
    0.9602  -11.1365   18.5084 C   0  0  0  0  0  0  0  0  0  0  0  0
    6.9884   -8.4425   17.0173 C   0  0  0  0  0  0  0  0  0  0  0  0
    4.6984   -9.0369   15.0943 C   0  0  0  0  0  0  0  0  0  0  0  0
   10.6559   -3.6178   19.0791 C   0  0  0  0  0  0  0  0  0  0  0  0
   11.2428   -4.2521   21.1405 C   0  0  0  0  0  0  0  0  0  0  0  0
    3.6430   -9.4347   17.0182 N   0  0  0  0  0  0  0  0  0  0  0  0
    8.2084   -6.3595   16.6770 N   0  0  0  0  0  0  0  0  0  0  0  0
    2.0760  -10.6144   18.3999 O   0  0  0  0  0  0  0  0  0  0  0  0
   11.2511   -3.1601   20.3308 N   0  0  0  0  0  0  0  0  0  0  0  0
    1.3662   -9.7304   16.3291 C   0  0  0  0  0  0  0  0  0  0  0  0
    2.3827   -9.9634   17.2237 C   0  0  0  0  0  0  0  0  0  0  0  0
   10.7635   -2.8987   18.1685 N   0  0  0  0  0  0  0  0  0  0  0  0
    7.3503   -6.3925   15.6532 C   0  0  0  0  0  0  0  0  0  0  0  0
   10.6628   -5.5153   20.4480 C   0  0  0  0  0  0  0  0  0  0  0  0
    9.4663   -4.1597   16.6806 He  0  0  0  0  0  0  0  0  0  0  0  0
  1  4  2  0
  1  7  1  0
  1  8  4  0
  1 10  4  0
  2 11  4  0
  2 15  4  0
  3  6  1  0
  3 16  1  0
  3 19  3  0
  4  5  1  0
  4 13  1  0
  4 17  1  0
  4 21  3  0
  5 16  1  0
  5 27  1  0
  6 20  1  0
  6 25  4  0
  7 12  2  0
  7 19  1  0
  7 23  2  0
  8 18  4  0
  8 28  4  0
  9 10  4  0
  9 27  2  0
 10 21  1  0
 11 23  4  0
 12 16  1  0
 12 21  1  0
 13 17  1  0
 13 20  1  0
 14 26  4  0
 15 22  4  0
 15 27  3  0
 18 23  4  0
 18 26  4  0
 19 23  4  0
 19 28  4  0
 21 27  1  0
 22 25  4  0
M  END
$$$$

 Created by Python create_sdf_string function

 29 35  0  0  0  0  0  0  0  0999 V2000
    9.5350   -5.7863   18.4347 C   0  0  0  0  0  0  0  0  0  0  0  0
   -0.0245  -10.9640   17.6196 N   0  0  0  0  0  0  0  0  0  0  0  0
    5.9596   -8.9427   17.7718 C   0  0  0  0  0  0  0  0  0  0  0  0
    5.1038   -7.8280   15.6748 C   0  0  0  0  0  0  0  0  0  0  0  0
    6.6226   -7.7240   15.7026 C   0  0  0  0  0  0  0  0  0  0  0  0
    4.8742   -9.8185   17.5718 C   0  0  0  0  0  0  0  0  0  0  0  0
    8.9995   -7.0954   18.6603 C   0  0  0  0  0  0  0  0  0  0  0  0
   10.2435   -5.0178   19.2468 C   0  0  0  0  0  0  0  0  0  0  0  0
    7.0810   -5.5994   14.8537 O   0  0  0  0  0  0  0  0  0  0  0  0
    9.0953   -5.3746   17.1916 C   0  0  0  0  0  0  0  0  0  0  0  0
    0.2197  -10.2434   16.5266 N   0  0  0  0  0  0  0  0  0  0  0  0
    8.1188   -7.4090   17.5616 C   0  0  0  0  0  0  0  0  0  0  0  0
    3.9079   -8.4156   15.9820 C   0  0  0  0  0  0  0  0  0  0  0  0
   10.1729   -3.1448   16.9328 C   0  0  0  0  0  0  0  0  0  0  0  0
    0.9238  -11.1539   18.5477 C   0  0  0  0  0  0  0  0  0  0  0  0
    7.0502   -8.4018   17.0023 C   0  0  0  0  0  0  0  0  0  0  0  0
    4.6943   -8.9197   15.1128 C   0  0  0  0  0  0  0  0  0  0  0  0
   10.7262   -3.6570   19.1007 C   0  0  0  0  0  0  0  0  0  0  0  0
   11.2605   -4.3111   21.1782 C   0  0  0  0  0  0  0  0  0  0  0  0
    3.6151   -9.4365   17.0364 N   0  0  0  0  0  0  0  0  0  0  0  0
    8.1939   -6.3491   16.6788 N   0  0  0  0  0  0  0  0  0  0  0  0
    2.1003  -10.6393   18.3520 C   0  0  0  0  0  0  0  0  0  0  0  0
   11.2663   -3.2622   20.3228 N   0  0  0  0  0  0  0  0  0  0  0  0
    1.4099   -9.7133   16.3446 C   0  0  0  0  0  0  0  0  0  0  0  0
    2.3876   -9.9276   17.2470 C   0  0  0  0  0  0  0  0  0  0  0  0
   10.7585   -2.8371   18.1250 N   0  0  0  0  0  0  0  0  0  0  0  0
    9.4525   -4.2425   16.6063 C   0  0  0  0  0  0  0  0  0  0  0  0
    7.2956   -6.4216   15.6582 C   0  0  0  0  0  0  0  0  0  0  0  0
   10.6766   -5.4324   20.5371 C   0  0  0  0  0  0  0  0  0  0  0  0
  1  7  1  0
  1  8  4  0
  1 10  4  0
  2 11  4  0
  2 15  4  0
  3  6  1  0
  3 16  1  0
  4  5  1  0
  4 13  1  0
  4 17  1  0
  5 16  1  0
  5 28  1  0
  6 20  1  0
  7 12  2  0
  8 18  4  0
  8 29  4  0
  9 28  2  0
 10 21  1  0
 10 27  4  0
 11 24  4  0
 12 16  1  0
 12 21  1  0
 13 17  1  0
 13 20  1  0
 14 26  4  0
 14 27  4  0
 15 22  4  0
 18 23  4  0
 18 26  4  0
 19 23  4  0
 19 29  4  0
 20 25  1  0
 21 28  1  0
 22 25  4  0
 24 25  4  0
M  END
$$$$

 Created by Python create_sdf_string function

 29 35  0  0  0  0  0  0  0  0999 V2000
    9.4624   -5.8410   18.4519 C   0  0  0  0  0  0  0  0  0  0  0  0
    0.0255  -11.0192   17.5921 N   0  0  0  0  0  0  0  0  0  0  0  0
    5.9579   -8.8903   17.7398 C   0  0  0  0  0  0  0  0  0  0  0  0
    5.0325   -7.8758   15.6874 C   0  0  0  0  0  0  0  0  0  0  0  0
    6.5361   -7.6885   15.7554 C   0  0  0  0  0  0  0  0  0  0  0  0
    4.8789   -9.7401   17.5930 C   0  0  0  0  0  0  0  0  0  0  0  0
    8.9882   -7.0932   18.7039 C   0  0  0  0  0  0  0  0  0  0  0  0
   10.2300   -4.9757   19.2030 N   0  0  0  0  0  0  0  0  0  0  0  0
    7.0569   -5.6370   14.8777 O   0  0  0  0  0  0  0  0  0  0  0  0
    9.0398   -5.4490   17.2615 C   0  0  0  0  0  0  0  0  0  0  0  0
    0.1534  -10.2538   16.5420 N   0  0  0  0  0  0  0  0  0  0  0  0
    8.0997   -7.4855   17.5049 O   0  0  0  0  0  0  0  0  0  0  0  0
    3.8619   -8.4146   16.0491 C   0  0  0  0  0  0  0  0  0  0  0  0
   10.2022   -3.2300   16.9444 C   0  0  0  0  0  0  0  0  0  0  0  0
    0.9023  -11.1381   18.5454 C   0  0  0  0  0  0  0  0  0  0  0  0
    7.0837   -8.4056   17.1120 C   0  0  0  0  0  0  0  0  0  0  0  0
    4.6908   -8.9293   15.0652 C   0  0  0  0  0  0  0  0  0  0  0  0
   10.7026   -3.6900   19.0670 C   0  0  0  0  0  0  0  0  0  0  0  0
   11.2173   -4.3221   21.1982 C   0  0  0  0  0  0  0  0  0  0  0  0
    3.6431   -9.4430   16.9565 N   0  0  0  0  0  0  0  0  0  0  0  0
    8.1276   -6.2710   16.6716 N   0  0  0  0  0  0  0  0  0  0  0  0
    2.0107  -10.6467   18.3183 C   0  0  0  0  0  0  0  0  0  0  0  0
   11.3493   -3.1510   20.3708 N   0  0  0  0  0  0  0  0  0  0  0  0
    2.3313   -9.9395   17.2280 C   0  0  0  0  0  0  0  0  0  0  0  0
   10.6931   -2.8848   18.0741 N   0  0  0  0  0  0  0  0  0  0  0  0
    9.4968   -4.2628   16.5545 C   0  0  0  0  0  0  0  0  0  0  0  0
    7.2016   -6.5062   15.6967 C   0  0  0  0  0  0  0  0  0  0  0  0
   10.6885   -5.4352   20.4361 C   0  0  0  0  0  0  0  0  0  0  0  0
    1.3395   -9.6770   16.3003 He  0  0  0  0  0  0  0  0  0  0  0  0
  1  7  1  0
  1  8  4  0
  1 10  4  0
  2 11  4  0
  2 15  4  0
  3  6  1  0
  3 16  1  0
  4  5  1  0
  4  9  2  0
  4 13  1  0
  4 17  1  0
  5 16  1  0
  5 27  1  0
  6 20  1  0
  7 12  2  0
  8 18  4  0
  8 28  4  0
  9 27  2  0
 10 18  1  0
 10 21  1  0
 10 26  4  0
 11 14  2  0
 12 16  1  0
 12 21  1  0
 13 17  1  0
 13 20  1  0
 14 25  4  0
 14 26  4  0
 15 22  4  0
 18 23  4  0
 18 25  4  0
 19 23  4  0
 19 28  4  0
 20 24  1  0
 21 27  1  0
M  END
$$$$

 Created by Python create_sdf_string function

 29 35  0  0  0  0  0  0  0  0999 V2000
    9.5033   -5.8007   18.4415 C   0  0  0  0  0  0  0  0  0  0  0  0
   -0.0567  -10.9927   17.6056 N   0  0  0  0  0  0  0  0  0  0  0  0
    5.9570   -8.9075   17.7767 C   0  0  0  0  0  0  0  0  0  0  0  0
    5.0704   -7.8226   15.7419 C   0  0  0  0  0  0  0  0  0  0  0  0
    6.5614   -7.7109   15.7788 C   0  0  0  0  0  0  0  0  0  0  0  0
    4.8503   -9.7532   17.6000 C   0  0  0  0  0  0  0  0  0  0  0  0
    8.9773   -7.1279   18.6454 C   0  0  0  0  0  0  0  0  0  0  0  0
   10.2442   -5.0082   19.2437 N   0  0  0  0  0  0  0  0  0  0  0  0
    7.0395   -5.6518   14.8628 O   0  0  0  0  0  0  0  0  0  0  0  0
    9.0703   -5.3987   17.1956 C   0  0  0  0  0  0  0  0  0  0  0  0
    0.1763  -10.2574   16.5257 N   0  0  0  0  0  0  0  0  0  0  0  0
    8.1292   -7.4663   17.5499 C   0  0  0  0  0  0  0  0  0  0  0  0
    3.8645   -8.3861   16.0082 C   0  0  0  0  0  0  0  0  0  0  0  0
   10.1895   -3.2086   16.9099 C   0  0  0  0  0  0  0  0  0  0  0  0
    0.8888  -11.1776   18.5415 C   0  0  0  0  0  0  0  0  0  0  0  0
    7.0646   -8.3916   17.0275 C   0  0  0  0  0  0  0  0  0  0  0  0
    4.6621   -8.8646   15.0941 C   0  0  0  0  0  0  0  0  0  0  0  0
   10.7200   -3.6775   19.0958 C   0  0  0  0  0  0  0  0  0  0  0  0
   11.2521   -4.3295   21.1928 C   0  0  0  0  0  0  0  0  0  0  0  0
    3.6107   -9.4307   16.9939 N   0  0  0  0  0  0  0  0  0  0  0  0
    8.1552   -6.3498   16.6850 N   0  0  0  0  0  0  0  0  0  0  0  0
    2.0888  -10.6543   18.3450 C   0  0  0  0  0  0  0  0  0  0  0  0
   11.2877   -3.2812   20.3134 N   0  0  0  0  0  0  0  0  0  0  0  0
    1.3810   -9.6879   16.3301 N   0  0  0  0  0  0  0  0  0  0  0  0
    2.3627   -9.9190   17.2213 C   0  0  0  0  0  0  0  0  0  0  0  0
   10.7451   -2.8848   18.0966 N   0  0  0  0  0  0  0  0  0  0  0  0
    9.4621   -4.2787   16.5892 C   0  0  0  0  0  0  0  0  0  0  0  0
    7.2352   -6.4443   15.6861 C   0  0  0  0  0  0  0  0  0  0  0  0
   10.6544   -5.3944   20.5026 C   0  0  0  0  0  0  0  0  0  0  0  0
  1  7  1  0
  1  8  4  0
  1 10  4  0
  2 11  4  0
  2 15  4  0
  3  6  1  0
  3 16  1  0
  4  5  1  0
  4 13  1  0
  4 17  1  0
  5 16  1  0
  5 28  1  0
  6 20  1  0
  7 12  2  0
  8 18  4  0
  8 29  4  0
  9 28  2  0
 10 21  1  0
 10 27  4  0
 11 24  4  0
 12 16  1  0
 12 21  1  0
 13 17  1  0
 13 20  1  0
 14 26  4  0
 14 27  4  0
 15 22  4  0
 18 23  4  0
 18 26  4  0
 19 23  4  0
 19 29  4  0
 20 25  1  0
 21 28  1  0
 22 25  4  0
 24 25  4  0
M  END
$$$$

 Created by Python create_sdf_string function

 29 39  0  0  0  0  0  0  0  0999 V2000
    9.4736   -5.7927   18.4165 C   0  0  0  0  0  0  0  0  0  0  0  0
   -0.1141  -10.9505   17.5928 N   0  0  0  0  0  0  0  0  0  0  0  0
    6.0185   -8.9467   17.7003 C   0  0  0  0  0  0  0  0  0  0  0  0
    5.0602   -7.8318   15.7444 C   0  0  0  0  0  0  0  0  0  0  0  0
    6.6582   -7.7317   15.7534 C   0  0  0  0  0  0  0  0  0  0  0  0
    4.8923   -9.8182   17.6363 C   0  0  0  0  0  0  0  0  0  0  0  0
    8.9977   -7.1608   18.5847 C   0  0  0  0  0  0  0  0  0  0  0  0
   10.2266   -4.9980   19.2847 N   0  0  0  0  0  0  0  0  0  0  0  0
    7.0264   -5.6362   14.8775 O   0  0  0  0  0  0  0  0  0  0  0  0
    9.0570   -5.3977   17.1554 C   0  0  0  0  0  0  0  0  0  0  0  0
    0.2365  -10.3009   16.4354 N   0  0  0  0  0  0  0  0  0  0  0  0
    8.1339   -7.4388   17.5724 C   0  0  0  0  0  0  0  0  0  0  0  0
    3.8662   -8.4133   15.9882 C   0  0  0  0  0  0  0  0  0  0  0  0
   10.1871   -3.2540   16.8551 C   0  0  0  0  0  0  0  0  0  0  0  0
    0.8252  -11.1504   18.5293 C   0  0  0  0  0  0  0  0  0  0  0  0
    7.1023   -8.3494   17.0316 C   0  0  0  0  0  0  0  0  0  0  0  0
    4.6392   -8.8527   15.0605 C   0  0  0  0  0  0  0  0  0  0  0  0
   10.6293   -3.7154   19.1007 C   0  0  0  0  0  0  0  0  0  0  0  0
   11.3056   -4.2903   21.1698 C   0  0  0  0  0  0  0  0  0  0  0  0
    3.6053   -9.3859   16.9789 N   0  0  0  0  0  0  0  0  0  0  0  0
    8.1844   -6.3656   16.6445 N   0  0  0  0  0  0  0  0  0  0  0  0
    2.1118  -10.6725   18.3153 C   0  0  0  0  0  0  0  0  0  0  0  0
   11.2991   -3.2806   20.3604 N   0  0  0  0  0  0  0  0  0  0  0  0
    1.4097   -9.7299   16.2731 N   0  0  0  0  0  0  0  0  0  0  0  0
    2.4155   -9.8673   17.2084 C   0  0  0  0  0  0  0  0  0  0  0  0
   10.7505   -2.8846   18.1247 N   0  0  0  0  0  0  0  0  0  0  0  0
    9.4453   -4.2790   16.5952 C   0  0  0  0  0  0  0  0  0  0  0  0
    7.2619   -6.4387   15.6371 C   0  0  0  0  0  0  0  0  0  0  0  0
   10.7726   -5.2887   20.4791 C   0  0  0  0  0  0  0  0  0  0  0  0
  1  7  1  0
  1  8  4  0
  1 10  4  0
  2 11  4  0
  2 15  4  0
  3  6  1  0
  3 16  1  0
  3 26  1  0
  4  5  1  0
  4 13  4  0
  4 17  1  0
  5 16  1  0
  5 28  1  0
  6 20  1  0
  7 12  2  0
  8 18  4  0
  8 29  4  0
  9 28  2  0
 10 21  1  0
 10 27  4  0
 11 14  2  0
 11 24  4  0
 12 16  1  0
 12 21  1  0
 13 17  1  0
 13 20  1  0
 14 26  4  0
 14 27  4  0
 15 22  4  0
 18 23  4  0
 18 26  4  0
 19 23  4  0
 19 24  2  0
 19 29  4  0
 20 21  4  0
 20 25  1  0
 21 28  1  0
 22 25  4  0
 24 25  4  0
M  END
$$$$

 Created by Python create_sdf_string function

 29 35  0  0  0  0  0  0  0  0999 V2000
    9.5162   -5.7803   18.4261 C   0  0  0  0  0  0  0  0  0  0  0  0
   -0.0714  -10.9585   17.5880 N   0  0  0  0  0  0  0  0  0  0  0  0
    6.0055   -8.9853   17.7203 C   0  0  0  0  0  0  0  0  0  0  0  0
    5.1682   -7.7755   15.7346 C   0  0  0  0  0  0  0  0  0  0  0  0
    6.6294   -7.7271   15.7328 C   0  0  0  0  0  0  0  0  0  0  0  0
    4.8381   -9.7872   17.6317 C   0  0  0  0  0  0  0  0  0  0  0  0
    9.0090   -7.1036   18.5923 C   0  0  0  0  0  0  0  0  0  0  0  0
   10.2517   -4.9960   19.2561 C   0  0  0  0  0  0  0  0  0  0  0  0
    7.0456   -5.6394   14.8645 O   0  0  0  0  0  0  0  0  0  0  0  0
    9.0757   -5.3906   17.1653 C   0  0  0  0  0  0  0  0  0  0  0  0
    0.2328  -10.2873   16.4702 N   0  0  0  0  0  0  0  0  0  0  0  0
    8.1499   -7.4079   17.5359 C   0  0  0  0  0  0  0  0  0  0  0  0
    3.7384   -8.4549   16.0080 C   0  0  0  0  0  0  0  0  0  0  0  0
   10.1814   -3.2127   16.8923 C   0  0  0  0  0  0  0  0  0  0  0  0
    0.8602  -11.1573   18.5455 C   0  0  0  0  0  0  0  0  0  0  0  0
    7.1003   -8.3621   17.0208 C   0  0  0  0  0  0  0  0  0  0  0  0
    4.6313   -8.7807   15.0899 C   0  0  0  0  0  0  0  0  0  0  0  0
   10.7184   -3.6711   19.1058 C   0  0  0  0  0  0  0  0  0  0  0  0
   11.3119   -4.2914   21.1741 C   0  0  0  0  0  0  0  0  0  0  0  0
    3.6139   -9.4064   17.0241 N   0  0  0  0  0  0  0  0  0  0  0  0
    8.1903   -6.3462   16.6526 N   0  0  0  0  0  0  0  0  0  0  0  0
    2.0792  -10.6646   18.3361 C   0  0  0  0  0  0  0  0  0  0  0  0
   11.2895   -3.2631   20.3135 N   0  0  0  0  0  0  0  0  0  0  0  0
    1.4312   -9.7293   16.3096 N   0  0  0  0  0  0  0  0  0  0  0  0
    2.3753   -9.9315   17.2213 C   0  0  0  0  0  0  0  0  0  0  0  0
   10.7245   -2.8968   18.0848 N   0  0  0  0  0  0  0  0  0  0  0  0
    9.4515   -4.2759   16.5693 C   0  0  0  0  0  0  0  0  0  0  0  0
    7.2813   -6.4416   15.6622 C   0  0  0  0  0  0  0  0  0  0  0  0
   10.6915   -5.3468   20.4995 C   0  0  0  0  0  0  0  0  0  0  0  0
  1  7  1  0
  1  8  4  0
  1 10  4  0
  2 11  4  0
  2 15  4  0
  3  6  1  0
  3 16  1  0
  4  5  1  0
  4 13  1  0
  4 17  1  0
  5 16  1  0
  5 28  1  0
  6 20  1  0
  7 12  2  0
  8 18  4  0
  8 29  4  0
  9 28  2  0
 10 21  1  0
 10 27  4  0
 11 24  4  0
 12 16  1  0
 12 21  1  0
 13 17  1  0
 13 20  1  0
 14 26  4  0
 14 27  4  0
 15 22  4  0
 18 23  4  0
 18 26  4  0
 19 23  4  0
 19 29  4  0
 20 25  1  0
 21 28  1  0
 22 25  4  0
 24 25  4  0
M  END
$$$$

 Created by Python create_sdf_string function

 29 36  0  0  0  0  0  0  0  0999 V2000
    9.5298   -5.8175   18.3987 C   0  0  0  0  0  0  0  0  0  0  0  0
   -0.0415  -10.9156   17.6074 N   0  0  0  0  0  0  0  0  0  0  0  0
    6.0471   -9.0053   17.7022 C   0  0  0  0  0  0  0  0  0  0  0  0
    5.2267   -7.7876   15.7625 C   0  0  0  0  0  0  0  0  0  0  0  0
    6.6311   -7.7484   15.7361 C   0  0  0  0  0  0  0  0  0  0  0  0
    4.8689   -9.8049   17.6078 C   0  0  0  0  0  0  0  0  0  0  0  0
    9.1247   -7.1264   18.5855 C   0  0  0  0  0  0  0  0  0  0  0  0
   10.3121   -5.0336   19.2598 C   0  0  0  0  0  0  0  0  0  0  0  0
    6.9940   -5.6246   14.7749 O   0  0  0  0  0  0  0  0  0  0  0  0
    9.0573   -5.3939   17.1710 C   0  0  0  0  0  0  0  0  0  0  0  0
    0.3377  -10.2381   16.5288 P   0  0  0  0  0  0  0  0  0  0  0  0
    8.1444   -7.3981   17.4945 C   0  0  0  0  0  0  0  0  0  0  0  0
    3.7636   -8.4685   16.0003 C   0  0  0  0  0  0  0  0  0  0  0  0
   10.1785   -3.1894   16.9248 C   0  0  0  0  0  0  0  0  0  0  0  0
    0.8945  -11.1366   18.5170 C   0  0  0  0  0  0  0  0  0  0  0  0
    7.1140   -8.2910   17.0168 C   0  0  0  0  0  0  0  0  0  0  0  0
    4.5580   -8.7288   15.0926 C   0  0  0  0  0  0  0  0  0  0  0  0
   10.7277   -3.6787   19.1380 C   0  0  0  0  0  0  0  0  0  0  0  0
   11.3105   -4.3048   21.1890 C   0  0  0  0  0  0  0  0  0  0  0  0
    3.5549   -9.4446   17.0034 N   0  0  0  0  0  0  0  0  0  0  0  0
    8.1436   -6.3010   16.6461 N   0  0  0  0  0  0  0  0  0  0  0  0
    2.0903  -10.6778   18.3138 C   0  0  0  0  0  0  0  0  0  0  0  0
   11.2328   -3.2181   20.2665 N   0  0  0  0  0  0  0  0  0  0  0  0
    2.4514   -9.9473   17.2110 C   0  0  0  0  0  0  0  0  0  0  0  0
   10.7028   -2.9824   18.0928 N   0  0  0  0  0  0  0  0  0  0  0  0
    9.4976   -4.2620   16.6100 C   0  0  0  0  0  0  0  0  0  0  0  0
    7.2280   -6.4849   15.6559 C   0  0  0  0  0  0  0  0  0  0  0  0
   10.6119   -5.3123   20.4888 C   0  0  0  0  0  0  0  0  0  0  0  0
    1.4218   -9.7933   16.3057 He  0  0  0  0  0  0  0  0  0  0  0  0
  1  7  1  0
  1  8  4  0
  1 10  4  0
  2 11  4  0
  2 15  4  0
  3  6  1  0
  3 16  1  0
  4  5  1  0
  4 13  1  0
  4 17  1  0
  5  8  2  0
  5 16  1  0
  5 27  1  0
  6 20  1  0
  7 12  2  0
  7 13  1  0
  7 27  1  0
  8 18  4  0
  8 28  4  0
  9 27  2  0
 10 21  1  0
 12 16  1  0
 12 21  1  0
 13 17  1  0
 13 20  1  0
 13 26  1  0
 14 25  4  0
 14 26  4  0
 15 22  4  0
 18 25  4  0
 19 23  4  0
 19 28  4  0
 20 24  1  0
 21 24  3  0
 21 27  1  0
 22 24  4  0
M  END
$$$$

 Created by Python create_sdf_string function

 29 35  0  0  0  0  0  0  0  0999 V2000
    9.5614   -5.7822   18.4002 C   0  0  0  0  0  0  0  0  0  0  0  0
   -0.0466  -10.9459   17.6164 N   0  0  0  0  0  0  0  0  0  0  0  0
    6.0361   -9.0366   17.6891 C   0  0  0  0  0  0  0  0  0  0  0  0
    5.1289   -7.7257   15.7404 C   0  0  0  0  0  0  0  0  0  0  0  0
    6.6258   -7.7082   15.7663 C   0  0  0  0  0  0  0  0  0  0  0  0
    4.8550   -9.7738   17.5999 C   0  0  0  0  0  0  0  0  0  0  0  0
    9.0816   -7.1206   18.5616 C   0  0  0  0  0  0  0  0  0  0  0  0
   10.2525   -5.0100   19.2461 C   0  0  0  0  0  0  0  0  0  0  0  0
    7.0297   -5.6574   14.8087 O   0  0  0  0  0  0  0  0  0  0  0  0
    9.0896   -5.3765   17.1527 C   0  0  0  0  0  0  0  0  0  0  0  0
    0.2489  -10.2648   16.5219 C   0  0  0  0  0  0  0  0  0  0  0  0
    8.1708   -7.4074   17.5126 C   0  0  0  0  0  0  0  0  0  0  0  0
    3.7585   -8.3752   16.0144 C   0  0  0  0  0  0  0  0  0  0  0  0
   10.1856   -3.1884   16.9205 C   0  0  0  0  0  0  0  0  0  0  0  0
    0.8950  -11.1512   18.5265 C   0  0  0  0  0  0  0  0  0  0  0  0
    7.1043   -8.3541   17.0246 C   0  0  0  0  0  0  0  0  0  0  0  0
    4.5941   -8.6878   15.1014 C   0  0  0  0  0  0  0  0  0  0  0  0
   10.7410   -3.6697   19.1099 C   0  0  0  0  0  0  0  0  0  0  0  0
   11.2772   -4.3036   21.1894 C   0  0  0  0  0  0  0  0  0  0  0  0
    3.6243   -9.4473   17.0405 N   0  0  0  0  0  0  0  0  0  0  0  0
    8.1793   -6.3222   16.6486 N   0  0  0  0  0  0  0  0  0  0  0  0
    2.1149  -10.6784   18.3230 C   0  0  0  0  0  0  0  0  0  0  0  0
   11.2940   -3.2701   20.3153 N   0  0  0  0  0  0  0  0  0  0  0  0
    1.4543   -9.7405   16.3159 N   0  0  0  0  0  0  0  0  0  0  0  0
    2.4097   -9.9598   17.2315 C   0  0  0  0  0  0  0  0  0  0  0  0
   10.7506   -2.9023   18.1025 N   0  0  0  0  0  0  0  0  0  0  0  0
    9.4462   -4.2526   16.5585 C   0  0  0  0  0  0  0  0  0  0  0  0
    7.2685   -6.4381   15.6424 C   0  0  0  0  0  0  0  0  0  0  0  0
   10.6434   -5.3801   20.5342 C   0  0  0  0  0  0  0  0  0  0  0  0
  1  7  1  0
  1  8  4  0
  1 10  4  0
  2 11  4  0
  2 15  4  0
  3  6  1  0
  3 16  1  0
  4  5  1  0
  4 13  1  0
  4 17  1  0
  5 16  1  0
  5 28  1  0
  6 20  1  0
  7 12  2  0
  8 18  4  0
  8 29  4  0
  9 28  2  0
 10 21  1  0
 10 27  4  0
 11 24  4  0
 12 16  1  0
 12 21  1  0
 13 17  1  0
 13 20  1  0
 14 26  4  0
 14 27  4  0
 15 22  4  0
 18 23  4  0
 18 26  4  0
 19 23  4  0
 19 29  4  0
 20 25  1  0
 21 28  1  0
 22 25  4  0
 24 25  4  0
M  END
$$$$

 Created by Python create_sdf_string function

 29 36  0  0  0  0  0  0  0  0999 V2000
    9.5739   -5.8057   18.3563 C   0  0  0  0  0  0  0  0  0  0  0  0
   -0.0082  -10.9274   17.5734 N   0  0  0  0  0  0  0  0  0  0  0  0
    6.0487   -9.0788   17.7178 C   0  0  0  0  0  0  0  0  0  0  0  0
    5.1061   -7.7820   15.7567 C   0  0  0  0  0  0  0  0  0  0  0  0
    6.6479   -7.6954   15.7852 C   0  0  0  0  0  0  0  0  0  0  0  0
    4.8868   -9.7622   17.6746 C   0  0  0  0  0  0  0  0  0  0  0  0
    9.0810   -7.1020   18.5482 C   0  0  0  0  0  0  0  0  0  0  0  0
   10.2494   -5.0085   19.2265 C   0  0  0  0  0  0  0  0  0  0  0  0
    7.0039   -5.6889   14.7790 O   0  0  0  0  0  0  0  0  0  0  0  0
    9.1146   -5.3657   17.1457 C   0  0  0  0  0  0  0  0  0  0  0  0
    0.2493  -10.3032   16.5132 C   0  0  0  0  0  0  0  0  0  0  0  0
    8.1512   -7.4169   17.5205 C   0  0  0  0  0  0  0  0  0  0  0  0
    3.7423   -8.3265   16.0603 C   0  0  0  0  0  0  0  0  0  0  0  0
   10.2580   -3.1868   16.9021 C   0  0  0  0  0  0  0  0  0  0  0  0
    0.8835  -11.1523   18.5304 C   0  0  0  0  0  0  0  0  0  0  0  0
    7.0956   -8.3134   17.0941 C   0  0  0  0  0  0  0  0  0  0  0  0
    4.5799   -8.6741   15.1293 C   0  0  0  0  0  0  0  0  0  0  0  0
   11.3016   -4.2949   21.1440 C   0  0  0  0  0  0  0  0  0  0  0  0
    3.6236   -9.4698   17.0434 N   0  0  0  0  0  0  0  0  0  0  0  0
    8.1950   -6.3084   16.6512 N   0  0  0  0  0  0  0  0  0  0  0  0
    2.0602  -10.6337   18.3066 C   0  0  0  0  0  0  0  0  0  0  0  0
   11.2828   -3.2396   20.2964 N   0  0  0  0  0  0  0  0  0  0  0  0
    1.4497   -9.7298   16.3121 N   0  0  0  0  0  0  0  0  0  0  0  0
    2.3732   -9.9781   17.2467 C   0  0  0  0  0  0  0  0  0  0  0  0
   10.7351   -2.9369   18.1494 N   0  0  0  0  0  0  0  0  0  0  0  0
    9.4608   -4.2420   16.5453 C   0  0  0  0  0  0  0  0  0  0  0  0
    7.3068   -6.4456   15.6093 C   0  0  0  0  0  0  0  0  0  0  0  0
   10.6572   -5.3728   20.5406 C   0  0  0  0  0  0  0  0  0  0  0  0
   10.7593   -3.6600   19.1056 He  0  0  0  0  0  0  0  0  0  0  0  0
  1  7  1  0
  1  8  4  0
  1 10  4  0
  2 11  4  0
  2 15  4  0
  3  6  1  0
  3 16  1  0
  3 22  1  0
  4  5  1  0
  4 13  1  0
  4 17  1  0
  5 27  1  0
  6 14  2  0
  6 19  1  0
  7 12  2  0
  8 24  3  0
  8 28  4  0
  9 27  2  0
 10 20  1  0
 10 26  4  0
 11 23  4  0
 12 16  1  0
 12 20  1  0
 13 17  1  0
 13 19  1  0
 14 25  4  0
 14 26  4  0
 15 21  4  0
 16 25  2  0
 18 21  3  0
 18 22  4  0
 18 28  4  0
 19 24  1  0
 20 27  1  0
 21 24  4  0
 23 24  4  0
M  END
$$$$

 Created by Python create_sdf_string function

 29 35  0  0  0  0  0  0  0  0999 V2000
    9.5728   -5.7607   18.3718 C   0  0  0  0  0  0  0  0  0  0  0  0
   -0.0425  -10.9653   17.5878 N   0  0  0  0  0  0  0  0  0  0  0  0
    6.0430   -9.0644   17.6929 C   0  0  0  0  0  0  0  0  0  0  0  0
    5.0981   -7.7196   15.7999 C   0  0  0  0  0  0  0  0  0  0  0  0
    6.6220   -7.7026   15.7682 C   0  0  0  0  0  0  0  0  0  0  0  0
    4.8545   -9.7616   17.6520 C   0  0  0  0  0  0  0  0  0  0  0  0
    9.0723   -7.0934   18.5463 C   0  0  0  0  0  0  0  0  0  0  0  0
   10.2740   -4.9969   19.2272 C   0  0  0  0  0  0  0  0  0  0  0  0
    7.0499   -5.6856   14.8006 O   0  0  0  0  0  0  0  0  0  0  0  0
    9.1223   -5.3602   17.1330 C   0  0  0  0  0  0  0  0  0  0  0  0
    0.2457  -10.2892   16.5120 C   0  0  0  0  0  0  0  0  0  0  0  0
    8.1848   -7.3839   17.5169 C   0  0  0  0  0  0  0  0  0  0  0  0
    3.7510   -8.3452   16.0949 C   0  0  0  0  0  0  0  0  0  0  0  0
   10.2345   -3.1630   16.9191 C   0  0  0  0  0  0  0  0  0  0  0  0
    0.8703  -11.1625   18.5321 C   0  0  0  0  0  0  0  0  0  0  0  0
    7.0957   -8.3221   17.0637 C   0  0  0  0  0  0  0  0  0  0  0  0
    4.5866   -8.7053   15.1370 C   0  0  0  0  0  0  0  0  0  0  0  0
   10.7600   -3.6575   19.1014 C   0  0  0  0  0  0  0  0  0  0  0  0
   11.2850   -4.3056   21.1658 C   0  0  0  0  0  0  0  0  0  0  0  0
    3.6123   -9.4604   17.0507 N   0  0  0  0  0  0  0  0  0  0  0  0
    8.2106   -6.3165   16.6240 N   0  0  0  0  0  0  0  0  0  0  0  0
    2.0607  -10.6748   18.3426 C   0  0  0  0  0  0  0  0  0  0  0  0
   11.3112   -3.2793   20.3061 N   0  0  0  0  0  0  0  0  0  0  0  0
    1.4342   -9.7362   16.3321 N   0  0  0  0  0  0  0  0  0  0  0  0
    2.3680   -9.9598   17.2501 C   0  0  0  0  0  0  0  0  0  0  0  0
   10.7820   -2.8724   18.1118 N   0  0  0  0  0  0  0  0  0  0  0  0
    9.4821   -4.2277   16.5357 C   0  0  0  0  0  0  0  0  0  0  0  0
    7.2944   -6.4411   15.6399 C   0  0  0  0  0  0  0  0  0  0  0  0
   10.6506   -5.3824   20.5268 C   0  0  0  0  0  0  0  0  0  0  0  0
  1  7  1  0
  1  8  4  0
  1 10  4  0
  2 11  4  0
  2 15  4  0
  3  6  1  0
  3 16  1  0
  4  5  1  0
  4 13  1  0
  4 17  1  0
  5 16  1  0
  5 28  1  0
  6 20  1  0
  7 12  2  0
  8 18  4  0
  8 29  4  0
  9 28  2  0
 10 21  1  0
 10 27  4  0
 11 24  4  0
 12 16  1  0
 12 21  1  0
 13 17  1  0
 13 20  1  0
 14 26  4  0
 14 27  4  0
 15 22  4  0
 18 23  4  0
 18 26  4  0
 19 23  4  0
 19 29  4  0
 20 25  1  0
 21 28  1  0
 22 25  4  0
 24 25  4  0
M  END
$$$$

 Created by Python create_sdf_string function

 29 40  0  0  0  0  0  0  0  0999 V2000
    9.6169   -5.7779   18.3306 C   0  0  0  0  0  0  0  0  0  0  0  0
   -0.0127  -10.9713   17.5529 N   0  0  0  0  0  0  0  0  0  0  0  0
    6.0366   -9.0842   17.6917 C   0  0  0  0  0  0  0  0  0  0  0  0
    5.0622   -7.7495   15.6993 C   0  0  0  0  0  0  0  0  0  0  0  0
    6.6191   -7.7477   15.8007 C   0  0  0  0  0  0  0  0  0  0  0  0
    4.8871   -9.7664   17.6573 C   0  0  0  0  0  0  0  0  0  0  0  0
    9.0539   -7.1024   18.5324 C   0  0  0  0  0  0  0  0  0  0  0  0
   10.2911   -4.9945   19.2188 C   0  0  0  0  0  0  0  0  0  0  0  0
    7.0776   -5.7063   14.7613 Cl  0  0  0  0  0  0  0  0  0  0  0  0
    9.1645   -5.3856   17.1574 C   0  0  0  0  0  0  0  0  0  0  0  0
    0.2302  -10.3010   16.4930 C   0  0  0  0  0  0  0  0  0  0  0  0
    8.1844   -7.4139   17.5065 C   0  0  0  0  0  0  0  0  0  0  0  0
    3.7737   -8.3015   16.1188 C   0  0  0  0  0  0  0  0  0  0  0  0
   10.2119   -3.2577   16.9102 C   0  0  0  0  0  0  0  0  0  0  0  0
    0.9081  -11.1291   18.4656 C   0  0  0  0  0  0  0  0  0  0  0  0
    7.0956   -8.3004   17.0328 C   0  0  0  0  0  0  0  0  0  0  0  0
    4.5925   -8.7275   15.1260 C   0  0  0  0  0  0  0  0  0  0  0  0
   10.7231   -3.6618   19.0836 C   0  0  0  0  0  0  0  0  0  0  0  0
   11.2780   -4.3392   21.2354 C   0  0  0  0  0  0  0  0  0  0  0  0
    3.5937   -9.4527   16.9981 N   0  0  0  0  0  0  0  0  0  0  0  0
    8.2355   -6.3610   16.6273 N   0  0  0  0  0  0  0  0  0  0  0  0
    2.0706  -10.6726   18.3674 C   0  0  0  0  0  0  0  0  0  0  0  0
   11.3545   -3.2774   20.3362 N   0  0  0  0  0  0  0  0  0  0  0  0
    1.3988   -9.6600   16.3320 N   0  0  0  0  0  0  0  0  0  0  0  0
    2.3351   -9.9144   17.2770 C   0  0  0  0  0  0  0  0  0  0  0  0
   10.8440   -2.8508   18.1408 N   0  0  0  0  0  0  0  0  0  0  0  0
    9.5170   -4.2044   16.5022 C   0  0  0  0  0  0  0  0  0  0  0  0
    7.2369   -6.4244   15.6492 C   0  0  0  0  0  0  0  0  0  0  0  0
   10.6431   -5.3645   20.5303 C   0  0  0  0  0  0  0  0  0  0  0  0
  1  7  1  0
  1  8  4  0
  1 10  4  0
  1 13  3  0
  2  3  2  0
  2 11  4  0
  2 15  4  0
  2 28  2  0
  3  6  1  0
  3 16  1  0
  4  5  1  0
  4 11  2  0
  4 13  1  0
  4 17  1  0
  5 16  1  0
  5 28  1  0
  6 20  1  0
  7  9  3  0
  7 12  2  0
  8 18  4  0
  8 29  4  0
  9 28  2  0
 10 21  1  0
 10 27  4  0
 11 24  4  0
 12 16  1  0
 12 21  1  0
 13 17  1  0
 13 20  1  0
 14 26  4  0
 14 27  4  0
 15 22  4  0
 18 23  4  0
 18 26  4  0
 19 23  4  0
 19 29  4  0
 20 25  1  0
 21 28  1  0
 22 25  4  0
 24 25  4  0
M  END
$$$$

 Created by Python create_sdf_string function

 29 35  0  0  0  0  0  0  0  0999 V2000
    9.5895   -5.7761   18.3624 C   0  0  0  0  0  0  0  0  0  0  0  0
   -0.0206  -10.9861   17.5690 N   0  0  0  0  0  0  0  0  0  0  0  0
    6.0449   -9.0836   17.6806 C   0  0  0  0  0  0  0  0  0  0  0  0
    5.0740   -7.7042   15.7769 C   0  0  0  0  0  0  0  0  0  0  0  0
    6.6175   -7.7292   15.7706 C   0  0  0  0  0  0  0  0  0  0  0  0
    4.8486   -9.7776   17.6469 C   0  0  0  0  0  0  0  0  0  0  0  0
    9.0809   -7.0936   18.5391 C   0  0  0  0  0  0  0  0  0  0  0  0
   10.2888   -4.9977   19.2321 C   0  0  0  0  0  0  0  0  0  0  0  0
    7.0722   -5.7153   14.8161 O   0  0  0  0  0  0  0  0  0  0  0  0
    9.1500   -5.3749   17.1153 C   0  0  0  0  0  0  0  0  0  0  0  0
    0.2429  -10.2721   16.5079 C   0  0  0  0  0  0  0  0  0  0  0  0
    8.2027   -7.3780   17.4989 C   0  0  0  0  0  0  0  0  0  0  0  0
    3.7590   -8.3215   16.1337 C   0  0  0  0  0  0  0  0  0  0  0  0
   10.2487   -3.1791   16.9249 C   0  0  0  0  0  0  0  0  0  0  0  0
    0.8966  -11.1678   18.5063 C   0  0  0  0  0  0  0  0  0  0  0  0
    7.0934   -8.3257   17.0565 C   0  0  0  0  0  0  0  0  0  0  0  0
    4.5771   -8.7083   15.1628 C   0  0  0  0  0  0  0  0  0  0  0  0
   10.7941   -3.6689   19.1202 C   0  0  0  0  0  0  0  0  0  0  0  0
   11.2750   -4.3359   21.2284 C   0  0  0  0  0  0  0  0  0  0  0  0
    3.5962   -9.4483   17.0452 N   0  0  0  0  0  0  0  0  0  0  0  0
    8.2252   -6.3310   16.6075 N   0  0  0  0  0  0  0  0  0  0  0  0
    2.0738  -10.6676   18.3525 C   0  0  0  0  0  0  0  0  0  0  0  0
   11.3486   -3.2994   20.3422 N   0  0  0  0  0  0  0  0  0  0  0  0
    1.4083   -9.6856   16.3588 N   0  0  0  0  0  0  0  0  0  0  0  0
    2.3496   -9.9283   17.2564 C   0  0  0  0  0  0  0  0  0  0  0  0
   10.8095   -2.8743   18.1054 N   0  0  0  0  0  0  0  0  0  0  0  0
    9.5161   -4.2324   16.5207 C   0  0  0  0  0  0  0  0  0  0  0  0
    7.2942   -6.4505   15.6357 C   0  0  0  0  0  0  0  0  0  0  0  0
   10.6347   -5.3925   20.5378 C   0  0  0  0  0  0  0  0  0  0  0  0
  1  7  1  0
  1  8  4  0
  1 10  4  0
  2 11  4  0
  2 15  4  0
  3  6  1  0
  3 16  1  0
  4  5  1  0
  4 13  1  0
  4 17  1  0
  5 16  1  0
  5 28  1  0
  6 20  1  0
  7 12  2  0
  8 18  4  0
  8 29  4  0
  9 28  2  0
 10 21  1  0
 10 27  4  0
 11 24  4  0
 12 16  1  0
 12 21  1  0
 13 17  1  0
 13 20  1  0
 14 26  4  0
 14 27  4  0
 15 22  4  0
 18 23  4  0
 18 26  4  0
 19 23  4  0
 19 29  4  0
 20 25  1  0
 21 28  1  0
 22 25  4  0
 24 25  4  0
M  END
$$$$

 Created by Python create_sdf_string function

 29 37  0  0  0  0  0  0  0  0999 V2000
    9.5883   -5.8243   18.3549 C   0  0  0  0  0  0  0  0  0  0  0  0
   -0.0014  -10.9636   17.5610 N   0  0  0  0  0  0  0  0  0  0  0  0
    6.0495   -9.0570   17.6904 C   0  0  0  0  0  0  0  0  0  0  0  0
    5.0500   -7.6906   15.8211 C   0  0  0  0  0  0  0  0  0  0  0  0
    6.6011   -7.7228   15.7429 C   0  0  0  0  0  0  0  0  0  0  0  0
    4.8573   -9.7456   17.6489 C   0  0  0  0  0  0  0  0  0  0  0  0
    9.0754   -7.0700   18.5296 C   0  0  0  0  0  0  0  0  0  0  0  0
   10.2741   -5.0224   19.2307 C   0  0  0  0  0  0  0  0  0  0  0  0
    7.0794   -5.7133   14.7939 O   0  0  0  0  0  0  0  0  0  0  0  0
    9.1306   -5.3795   17.1052 C   0  0  0  0  0  0  0  0  0  0  0  0
    0.2137  -10.2495   16.5005 C   0  0  0  0  0  0  0  0  0  0  0  0
    8.1637   -7.3658   17.5057 C   0  0  0  0  0  0  0  0  0  0  0  0
    3.7624   -8.3292   16.1129 C   0  0  0  0  0  0  0  0  0  0  0  0
   10.2146   -3.2111   16.9625 C   0  0  0  0  0  0  0  0  0  0  0  0
    0.8801  -11.1299   18.5051 C   0  0  0  0  0  0  0  0  0  0  0  0
    7.0961   -8.2961   17.0027 C   0  0  0  0  0  0  0  0  0  0  0  0
    4.5433   -8.7144   15.1239 C   0  0  0  0  0  0  0  0  0  0  0  0
   10.8136   -3.7153   19.1281 C   0  0  0  0  0  0  0  0  0  0  0  0
   11.2801   -4.3367   21.2507 C   0  0  0  0  0  0  0  0  0  0  0  0
    3.6031   -9.4739   17.0162 N   0  0  0  0  0  0  0  0  0  0  0  0
    8.2355   -6.3668   16.5999 N   0  0  0  0  0  0  0  0  0  0  0  0
    2.0963  -10.6877   18.3357 C   0  0  0  0  0  0  0  0  0  0  0  0
   11.3334   -3.3105   20.3433 N   0  0  0  0  0  0  0  0  0  0  0  0
    1.3989   -9.6760   16.3295 N   0  0  0  0  0  0  0  0  0  0  0  0
    2.3763   -9.9333   17.2411 C   0  0  0  0  0  0  0  0  0  0  0  0
   10.7790   -2.9065   18.0681 N   0  0  0  0  0  0  0  0  0  0  0  0
    9.4856   -4.2347   16.4905 C   0  0  0  0  0  0  0  0  0  0  0  0
    7.3097   -6.4242   15.6632 C   0  0  0  0  0  0  0  0  0  0  0  0
   10.6207   -5.3742   20.5265 C   0  0  0  0  0  0  0  0  0  0  0  0
  1  7  1  0
  1  8  4  0
  1 10  4  0
  2 11  4  0
  2 15  4  0
  3  6  1  0
  3 16  1  0
  3 27  4  0
  4  5  1  0
  4 17  1  0
  5 16  1  0
  5 28  1  0
  5 29  1  0
  6 20  1  0
  6 24  4  0
  7 12  2  0
  8 18  4  0
  8 29  4  0
  9 28  2  0
 10 21  1  0
 10 27  4  0
 11 24  4  0
 12 16  1  0
 12 21  1  0
 13 14  2  0
 13 17  1  0
 13 20  1  0
 14 26  4  0
 14 27  4  0
 15 22  4  0
 18 23  4  0
 18 26  4  0
 19 23  4  0
 19 29  4  0
 21 28  1  0
 22 25  4  0
 24 25  4  0
M  END
$$$$

 Created by Python create_sdf_string function

 29 35  0  0  0  0  0  0  0  0999 V2000
    9.5836   -5.7697   18.3522 C   0  0  0  0  0  0  0  0  0  0  0  0
   -0.0340  -10.9715   17.5896 N   0  0  0  0  0  0  0  0  0  0  0  0
    6.0386   -9.0711   17.6694 C   0  0  0  0  0  0  0  0  0  0  0  0
    5.0975   -7.6552   15.8161 C   0  0  0  0  0  0  0  0  0  0  0  0
    6.6134   -7.6976   15.7431 C   0  0  0  0  0  0  0  0  0  0  0  0
    4.8508   -9.7568   17.6532 C   0  0  0  0  0  0  0  0  0  0  0  0
    9.0701   -7.0776   18.5317 C   0  0  0  0  0  0  0  0  0  0  0  0
   10.2878   -5.0137   19.2380 C   0  0  0  0  0  0  0  0  0  0  0  0
    7.1091   -5.6926   14.8073 O   0  0  0  0  0  0  0  0  0  0  0  0
    9.1339   -5.3811   17.1002 C   0  0  0  0  0  0  0  0  0  0  0  0
    0.2243  -10.2513   16.5226 C   0  0  0  0  0  0  0  0  0  0  0  0
    8.1940   -7.3622   17.4974 C   0  0  0  0  0  0  0  0  0  0  0  0
    3.6851   -8.3635   16.1219 C   0  0  0  0  0  0  0  0  0  0  0  0
   10.2246   -3.1859   16.9331 C   0  0  0  0  0  0  0  0  0  0  0  0
    0.8884  -11.1683   18.5200 C   0  0  0  0  0  0  0  0  0  0  0  0
    7.1058   -8.3227   17.0251 C   0  0  0  0  0  0  0  0  0  0  0  0
    4.5510   -8.6587   15.1643 C   0  0  0  0  0  0  0  0  0  0  0  0
   10.8014   -3.6953   19.1286 C   0  0  0  0  0  0  0  0  0  0  0  0
   11.2708   -4.3502   21.2360 C   0  0  0  0  0  0  0  0  0  0  0  0
    3.6071   -9.4570   17.0467 N   0  0  0  0  0  0  0  0  0  0  0  0
    8.2310   -6.3314   16.6051 N   0  0  0  0  0  0  0  0  0  0  0  0
    2.0807  -10.6901   18.3368 C   0  0  0  0  0  0  0  0  0  0  0  0
   11.3557   -3.3248   20.3358 N   0  0  0  0  0  0  0  0  0  0  0  0
    1.4167   -9.6942   16.3568 N   0  0  0  0  0  0  0  0  0  0  0  0
    2.3666   -9.9500   17.2512 C   0  0  0  0  0  0  0  0  0  0  0  0
   10.8002   -2.9235   18.1130 N   0  0  0  0  0  0  0  0  0  0  0  0
    9.4906   -4.2360   16.5011 C   0  0  0  0  0  0  0  0  0  0  0  0
    7.3232   -6.4430   15.6303 C   0  0  0  0  0  0  0  0  0  0  0  0
   10.6231   -5.4056   20.5479 C   0  0  0  0  0  0  0  0  0  0  0  0
  1  7  1  0
  1  8  4  0
  1 10  4  0
  2 11  4  0
  2 15  4  0
  3  6  1  0
  3 16  1  0
  4  5  1  0
  4 13  1  0
  4 17  1  0
  5 16  1  0
  5 28  1  0
  6 20  1  0
  7 12  2  0
  8 18  4  0
  8 29  4  0
  9 28  2  0
 10 21  1  0
 10 27  4  0
 11 24  4  0
 12 16  1  0
 12 21  1  0
 13 17  1  0
 13 20  1  0
 14 26  4  0
 14 27  4  0
 15 22  4  0
 18 23  4  0
 18 26  4  0
 19 23  4  0
 19 29  4  0
 20 25  1  0
 21 28  1  0
 22 25  4  0
 24 25  4  0
M  END
$$$$

 Created by Python create_sdf_string function

 29 35  0  0  0  0  0  0  0  0999 V2000
    9.6085   -5.7755   18.3590 C   0  0  0  0  0  0  0  0  0  0  0  0
   -0.0347  -10.9412   17.5954 N   0  0  0  0  0  0  0  0  0  0  0  0
    6.0155   -9.0813   17.7011 C   0  0  0  0  0  0  0  0  0  0  0  0
    5.0613   -7.6358   15.8335 C   0  0  0  0  0  0  0  0  0  0  0  0
    6.5914   -7.7301   15.8057 C   0  0  0  0  0  0  0  0  0  0  0  0
    4.8213   -9.7511   17.6710 C   0  0  0  0  0  0  0  0  0  0  0  0
    9.0186   -7.0740   18.5116 C   0  0  0  0  0  0  0  0  0  0  0  0
   10.2530   -5.0242   19.2662 C   0  0  0  0  0  0  0  0  0  0  0  0
    7.1056   -5.6935   14.8084 O   0  0  0  0  0  0  0  0  0  0  0  0
    9.1210   -5.3443   17.1229 C   0  0  0  0  0  0  0  0  0  0  0  0
    0.2389  -10.2317   16.5190 C   0  0  0  0  0  0  0  0  0  0  0  0
    8.1638   -7.3271   17.5167 C   0  0  0  0  0  0  0  0  0  0  0  0
    3.6629   -8.3840   16.0958 C   0  0  0  0  0  0  0  0  0  0  0  0
   10.2138   -3.2043   16.9238 C   0  0  0  0  0  0  0  0  0  0  0  0
    0.9355  -11.2021   18.4910 C   0  0  0  0  0  0  0  0  0  0  0  0
    7.0920   -8.3278   17.0018 C   0  0  0  0  0  0  0  0  0  0  0  0
    4.5005   -8.6495   15.1411 C   0  0  0  0  0  0  0  0  0  0  0  0
   10.8590   -3.6935   19.1079 C   0  0  0  0  0  0  0  0  0  0  0  0
   11.2744   -4.3681   21.2497 C   0  0  0  0  0  0  0  0  0  0  0  0
    3.5864   -9.4770   17.0334 N   0  0  0  0  0  0  0  0  0  0  0  0
    8.2468   -6.3523   16.5888 N   0  0  0  0  0  0  0  0  0  0  0  0
    2.0616  -10.6986   18.3325 C   0  0  0  0  0  0  0  0  0  0  0  0
   11.3398   -3.3263   20.3322 N   0  0  0  0  0  0  0  0  0  0  0  0
    1.3914   -9.7148   16.3432 N   0  0  0  0  0  0  0  0  0  0  0  0
    2.3360   -9.9429   17.2332 C   0  0  0  0  0  0  0  0  0  0  0  0
   10.8056   -2.9167   18.0940 N   0  0  0  0  0  0  0  0  0  0  0  0
    9.4896   -4.2186   16.4831 C   0  0  0  0  0  0  0  0  0  0  0  0
    7.3636   -6.4305   15.6753 C   0  0  0  0  0  0  0  0  0  0  0  0
   10.6220   -5.4247   20.5256 C   0  0  0  0  0  0  0  0  0  0  0  0
  1  7  1  0
  1  8  4  0
  1 10  4  0
  2 11  4  0
  2 15  4  0
  3  6  1  0
  3 16  1  0
  4  5  1  0
  4 13  1  0
  4 17  1  0
  5 16  1  0
  5 28  1  0
  6 20  1  0
  7 12  2  0
  7 25  2  0
  8 18  4  0
  8 29  4  0
  9 28  2  0
 10 21  1  0
 10 27  4  0
 11 24  4  0
 12 16  1  0
 12 21  1  0
 13 17  1  0
 13 20  1  0
 14 27  4  0
 15 22  4  0
 18 23  4  0
 18 26  4  0
 19 23  4  0
 19 29  4  0
 20 25  1  0
 21 28  1  0
 22 25  4  0
 24 25  4  0
M  END
$$$$

 Created by Python create_sdf_string function

 29 35  0  0  0  0  0  0  0  0999 V2000
    9.5735   -5.7524   18.3542 C   0  0  0  0  0  0  0  0  0  0  0  0
   -0.0444  -10.9787   17.6119 N   0  0  0  0  0  0  0  0  0  0  0  0
    6.0007   -9.0844   17.6715 C   0  0  0  0  0  0  0  0  0  0  0  0
    5.0615   -7.6362   15.8431 C   0  0  0  0  0  0  0  0  0  0  0  0
    6.6089   -7.6852   15.7745 C   0  0  0  0  0  0  0  0  0  0  0  0
    4.8018   -9.7507   17.6507 C   0  0  0  0  0  0  0  0  0  0  0  0
    9.0416   -7.0599   18.5279 C   0  0  0  0  0  0  0  0  0  0  0  0
   10.2870   -5.0208   19.2337 C   0  0  0  0  0  0  0  0  0  0  0  0
    7.1350   -5.6845   14.8162 O   0  0  0  0  0  0  0  0  0  0  0  0
    9.1340   -5.3611   17.1043 C   0  0  0  0  0  0  0  0  0  0  0  0
    0.2136  -10.2561   16.5578 C   0  0  0  0  0  0  0  0  0  0  0  0
    8.1879   -7.3413   17.5028 C   0  0  0  0  0  0  0  0  0  0  0  0
    3.6307   -8.3541   16.0898 C   0  0  0  0  0  0  0  0  0  0  0  0
   10.2406   -3.1698   16.9177 C   0  0  0  0  0  0  0  0  0  0  0  0
    0.8921  -11.2196   18.5128 C   0  0  0  0  0  0  0  0  0  0  0  0
    7.1060   -8.3379   17.0426 C   0  0  0  0  0  0  0  0  0  0  0  0
    4.5102   -8.6138   15.1716 C   0  0  0  0  0  0  0  0  0  0  0  0
   10.8136   -3.6996   19.1212 C   0  0  0  0  0  0  0  0  0  0  0  0
   11.2725   -4.3751   21.2335 C   0  0  0  0  0  0  0  0  0  0  0  0
    3.5706   -9.4534   17.0515 N   0  0  0  0  0  0  0  0  0  0  0  0
    8.2318   -6.3210   16.6107 N   0  0  0  0  0  0  0  0  0  0  0  0
    2.0701  -10.7148   18.3310 C   0  0  0  0  0  0  0  0  0  0  0  0
   11.3672   -3.3511   20.3303 N   0  0  0  0  0  0  0  0  0  0  0  0
    1.3952   -9.7043   16.3664 N   0  0  0  0  0  0  0  0  0  0  0  0
    2.3353   -9.9665   17.2614 C   0  0  0  0  0  0  0  0  0  0  0  0
   10.8200   -2.9269   18.1003 N   0  0  0  0  0  0  0  0  0  0  0  0
    9.4909   -4.2205   16.4993 C   0  0  0  0  0  0  0  0  0  0  0  0
    7.3384   -6.4376   15.6412 C   0  0  0  0  0  0  0  0  0  0  0  0
   10.6198   -5.4326   20.5516 C   0  0  0  0  0  0  0  0  0  0  0  0
  1  7  1  0
  1  8  4  0
  1 10  4  0
  2 11  4  0
  2 15  4  0
  3  6  1  0
  3 16  1  0
  4  5  1  0
  4 13  1  0
  4 17  1  0
  5 16  1  0
  5 28  1  0
  6 20  1  0
  7 12  2  0
  8 18  4  0
  8 29  4  0
  9 28  2  0
 10 21  1  0
 10 27  4  0
 11 24  4  0
 12 16  1  0
 12 21  1  0
 13 17  1  0
 13 20  1  0
 14 26  4  0
 14 27  4  0
 15 22  4  0
 18 23  4  0
 18 26  4  0
 19 23  4  0
 19 29  4  0
 20 25  1  0
 21 28  1  0
 22 25  4  0
 24 25  4  0
M  END
$$$$

 Created by Python create_sdf_string function

 29 37  0  0  0  0  0  0  0  0999 V2000
    9.6062   -5.7519   18.3952 C   0  0  0  0  0  0  0  0  0  0  0  0
   -0.0620  -10.9477   17.6147 N   0  0  0  0  0  0  0  0  0  0  0  0
    6.0422   -9.0855   17.6791 C   0  0  0  0  0  0  0  0  0  0  0  0
    5.0626   -7.5918   15.8717 C   0  0  0  0  0  0  0  0  0  0  0  0
    6.6310   -7.6952   15.7582 C   0  0  0  0  0  0  0  0  0  0  0  0
    4.8029   -9.7854   17.6308 C   0  0  0  0  0  0  0  0  0  0  0  0
    9.0389   -7.0495   18.5317 C   0  0  0  0  0  0  0  0  0  0  0  0
   10.2988   -5.0075   19.2366 C   0  0  0  0  0  0  0  0  0  0  0  0
    7.1636   -5.6756   14.8110 O   0  0  0  0  0  0  0  0  0  0  0  0
    9.1238   -5.3461   17.1104 C   0  0  0  0  0  0  0  0  0  0  0  0
    0.2296  -10.2617   16.6039 C   0  0  0  0  0  0  0  0  0  0  0  0
    8.1968   -7.3319   17.5202 C   0  0  0  0  0  0  0  0  0  0  0  0
    3.6416   -8.3475   16.0954 C   0  0  0  0  0  0  0  0  0  0  0  0
   10.2761   -3.1599   16.9181 C   0  0  0  0  0  0  0  0  0  0  0  0
    0.8905  -11.1979   18.5098 C   0  0  0  0  0  0  0  0  0  0  0  0
    7.1126   -8.3168   17.0633 C   0  0  0  0  0  0  0  0  0  0  0  0
    4.5016   -8.5929   15.1706 C   0  0  0  0  0  0  0  0  0  0  0  0
   10.8249   -3.7246   19.1220 C   0  0  0  0  0  0  0  0  0  0  0  0
   11.2948   -4.3967   21.2245 C   0  0  0  0  0  0  0  0  0  0  0  0
    3.5565   -9.4423   17.0210 N   0  0  0  0  0  0  0  0  0  0  0  0
    8.2138   -6.3396   16.6071 N   0  0  0  0  0  0  0  0  0  0  0  0
    2.0326  -10.6857   18.3078 C   0  0  0  0  0  0  0  0  0  0  0  0
   11.3777   -3.3565   20.3562 N   0  0  0  0  0  0  0  0  0  0  0  0
    1.4065   -9.7030   16.3663 N   0  0  0  0  0  0  0  0  0  0  0  0
    2.3602   -9.9438   17.2587 C   0  0  0  0  0  0  0  0  0  0  0  0
   10.8655   -2.9218   18.0786 N   0  0  0  0  0  0  0  0  0  0  0  0
    9.4880   -4.2362   16.4884 C   0  0  0  0  0  0  0  0  0  0  0  0
    7.3644   -6.4387   15.6650 C   0  0  0  0  0  0  0  0  0  0  0  0
   10.6303   -5.4467   20.5306 C   0  0  0  0  0  0  0  0  0  0  0  0
  1  7  1  0
  1  8  4  0
  1 10  4  0
  2 11  4  0
  2 15  4  0
  3  6  1  0
  3 16  1  0
  4  5  1  0
  4 13  1  0
  4 17  1  0
  5 16  1  0
  5 28  1  0
  6 20  1  0
  7 12  2  0
  7 13  3  0
  8 18  4  0
  8 29  4  0
  9 28  2  0
 10 21  1  0
 10 27  4  0
 11 24  4  0
 12 16  1  0
 12 21  1  0
 13 17  1  0
 13 20  1  0
 14 26  4  0
 14 27  4  0
 15 22  4  0
 15 28  3  0
 18 23  4  0
 18 26  4  0
 19 23  4  0
 19 29  4  0
 20 25  1  0
 21 28  1  0
 22 25  4  0
 24 25  4  0
M  END
$$$$

 Created by Python create_sdf_string function

 29 35  0  0  0  0  0  0  0  0999 V2000
    9.5798   -5.7311   18.3507 C   0  0  0  0  0  0  0  0  0  0  0  0
   -0.0569  -10.9742   17.6325 N   0  0  0  0  0  0  0  0  0  0  0  0
    6.0131   -9.1085   17.6486 C   0  0  0  0  0  0  0  0  0  0  0  0
    5.0775   -7.6005   15.8661 C   0  0  0  0  0  0  0  0  0  0  0  0
    6.6258   -7.6832   15.7593 C   0  0  0  0  0  0  0  0  0  0  0  0
    4.7864   -9.7663   17.6159 C   0  0  0  0  0  0  0  0  0  0  0  0
    9.0552   -7.0409   18.5429 C   0  0  0  0  0  0  0  0  0  0  0  0
   10.2983   -5.0052   19.2289 C   0  0  0  0  0  0  0  0  0  0  0  0
    7.1825   -5.6654   14.8188 O   0  0  0  0  0  0  0  0  0  0  0  0
    9.1376   -5.3477   17.1051 C   0  0  0  0  0  0  0  0  0  0  0  0
    0.2218  -10.2538   16.5969 C   0  0  0  0  0  0  0  0  0  0  0  0
    8.2065   -7.3339   17.5132 C   0  0  0  0  0  0  0  0  0  0  0  0
    3.6131   -8.3137   16.0955 C   0  0  0  0  0  0  0  0  0  0  0  0
   10.2782   -3.1634   16.9184 C   0  0  0  0  0  0  0  0  0  0  0  0
    0.8809  -11.2118   18.5298 C   0  0  0  0  0  0  0  0  0  0  0  0
    7.1177   -8.3261   17.0572 C   0  0  0  0  0  0  0  0  0  0  0  0
    4.5037   -8.5539   15.1989 C   0  0  0  0  0  0  0  0  0  0  0  0
   10.8404   -3.7070   19.1282 C   0  0  0  0  0  0  0  0  0  0  0  0
   11.2949   -4.4060   21.2287 C   0  0  0  0  0  0  0  0  0  0  0  0
    3.5616   -9.4364   17.0520 N   0  0  0  0  0  0  0  0  0  0  0  0
    8.2411   -6.3105   16.6237 N   0  0  0  0  0  0  0  0  0  0  0  0
    2.0613  -10.7087   18.3282 C   0  0  0  0  0  0  0  0  0  0  0  0
   11.3956   -3.3726   20.3456 N   0  0  0  0  0  0  0  0  0  0  0  0
    1.3898   -9.7017   16.3970 N   0  0  0  0  0  0  0  0  0  0  0  0
    2.3421   -9.9609   17.2767 C   0  0  0  0  0  0  0  0  0  0  0  0
   10.8682   -2.9118   18.1031 N   0  0  0  0  0  0  0  0  0  0  0  0
    9.5084   -4.2069   16.5028 C   0  0  0  0  0  0  0  0  0  0  0  0
    7.3564   -6.4329   15.6453 C   0  0  0  0  0  0  0  0  0  0  0  0
   10.6327   -5.4413   20.5424 C   0  0  0  0  0  0  0  0  0  0  0  0
  1  7  1  0
  1  8  4  0
  1 10  4  0
  2 11  4  0
  2 15  4  0
  3  6  1  0
  3 16  1  0
  4  5  1  0
  4 13  1  0
  4 17  1  0
  5 16  1  0
  5 28  1  0
  6 20  1  0
  7 12  2  0
  8 18  4  0
  8 29  4  0
  9 28  2  0
 10 21  1  0
 10 27  4  0
 11 24  4  0
 12 16  1  0
 12 21  1  0
 13 17  1  0
 13 20  1  0
 14 26  4  0
 14 27  4  0
 15 22  4  0
 18 23  4  0
 18 26  4  0
 19 23  4  0
 19 29  4  0
 20 25  1  0
 21 28  1  0
 22 25  4  0
 24 25  4  0
M  END
$$$$

 Created by Python create_sdf_string function

 29 36  0  0  0  0  0  0  0  0999 V2000
    9.5582   -5.7358   18.3406 C   0  0  0  0  0  0  0  0  0  0  0  0
   -0.0407  -10.9777   17.6224 N   0  0  0  0  0  0  0  0  0  0  0  0
    5.9866   -9.1300   17.6678 C   0  0  0  0  0  0  0  0  0  0  0  0
    5.0775   -7.6000   15.8627 C   0  0  0  0  0  0  0  0  0  0  0  0
    6.6278   -7.6770   15.7665 C   0  0  0  0  0  0  0  0  0  0  0  0
    4.7776   -9.7936   17.6140 C   0  0  0  0  0  0  0  0  0  0  0  0
    9.0336   -7.0434   18.5132 C   0  0  0  0  0  0  0  0  0  0  0  0
   10.2954   -5.0187   19.2148 C   0  0  0  0  0  0  0  0  0  0  0  0
    7.1558   -5.6761   14.7967 O   0  0  0  0  0  0  0  0  0  0  0  0
    9.1464   -5.3340   17.1259 C   0  0  0  0  0  0  0  0  0  0  0  0
    0.2330  -10.2420   16.5762 C   0  0  0  0  0  0  0  0  0  0  0  0
    8.2111   -7.3335   17.5114 C   0  0  0  0  0  0  0  0  0  0  0  0
    3.6252   -8.3054   16.0966 C   0  0  0  0  0  0  0  0  0  0  0  0
   10.2577   -3.1667   16.9272 C   0  0  0  0  0  0  0  0  0  0  0  0
    0.8693  -11.1908   18.5088 C   0  0  0  0  0  0  0  0  0  0  0  0
    7.1165   -8.3257   17.0528 C   0  0  0  0  0  0  0  0  0  0  0  0
    4.4845   -8.5527   15.1857 C   0  0  0  0  0  0  0  0  0  0  0  0
   10.8544   -3.7211   19.1439 C   0  0  0  0  0  0  0  0  0  0  0  0
   11.3056   -4.3943   21.2290 C   0  0  0  0  0  0  0  0  0  0  0  0
    3.5666   -9.4435   17.0391 N   0  0  0  0  0  0  0  0  0  0  0  0
    8.2143   -6.3010   16.6259 N   0  0  0  0  0  0  0  0  0  0  0  0
    2.0481  -10.7240   18.3204 C   0  0  0  0  0  0  0  0  0  0  0  0
   11.3874   -3.3625   20.3421 N   0  0  0  0  0  0  0  0  0  0  0  0
    1.3749   -9.7005   16.3968 N   0  0  0  0  0  0  0  0  0  0  0  0
    2.3316   -9.9574   17.2691 C   0  0  0  0  0  0  0  0  0  0  0  0
   10.8831   -2.9246   18.0760 N   0  0  0  0  0  0  0  0  0  0  0  0
    9.5341   -4.2127   16.5015 C   0  0  0  0  0  0  0  0  0  0  0  0
    7.3455   -6.4294   15.6378 C   0  0  0  0  0  0  0  0  0  0  0  0
   10.6368   -5.4371   20.5203 C   0  0  0  0  0  0  0  0  0  0  0  0
  1  7  1  0
  1  8  4  0
  1 10  4  0
  2 11  4  0
  2 15  4  0
  3  6  1  0
  3 16  1  0
  4  5  1  0
  4 13  1  0
  4 17  1  0
  4 20  4  0
  5 16  1  0
  5 28  1  0
  6 20  1  0
  7 12  2  0
  8 18  4  0
  8 29  4  0
  9 28  2  0
 10 21  1  0
 10 27  4  0
 11 24  4  0
 12 16  1  0
 12 21  1  0
 13 17  1  0
 13 20  1  0
 14 26  4  0
 14 27  4  0
 15 22  4  0
 18 23  4  0
 18 26  4  0
 19 23  4  0
 19 29  4  0
 20 25  1  0
 21 28  1  0
 22 25  4  0
 24 25  4  0
M  END
$$$$

 Created by Python create_sdf_string function

 29 35  0  0  0  0  0  0  0  0999 V2000
    9.5749   -5.7231   18.3413 C   0  0  0  0  0  0  0  0  0  0  0  0
   -0.0498  -10.9893   17.6347 N   0  0  0  0  0  0  0  0  0  0  0  0
    5.9769   -9.1409   17.6359 C   0  0  0  0  0  0  0  0  0  0  0  0
    5.0736   -7.5801   15.8555 C   0  0  0  0  0  0  0  0  0  0  0  0
    6.6198   -7.6739   15.7699 C   0  0  0  0  0  0  0  0  0  0  0  0
    4.7570   -9.7980   17.6054 C   0  0  0  0  0  0  0  0  0  0  0  0
    9.0464   -7.0293   18.5225 C   0  0  0  0  0  0  0  0  0  0  0  0
   10.3015   -5.0003   19.2240 C   0  0  0  0  0  0  0  0  0  0  0  0
    7.1794   -5.6619   14.8095 O   0  0  0  0  0  0  0  0  0  0  0  0
    9.1414   -5.3360   17.1030 C   0  0  0  0  0  0  0  0  0  0  0  0
    0.2115  -10.2582   16.6023 C   0  0  0  0  0  0  0  0  0  0  0  0
    8.2180   -7.3213   17.4999 C   0  0  0  0  0  0  0  0  0  0  0  0
    3.5921   -8.3160   16.1211 C   0  0  0  0  0  0  0  0  0  0  0  0
   10.2845   -3.1596   16.9290 C   0  0  0  0  0  0  0  0  0  0  0  0
    0.8773  -11.2223   18.5356 C   0  0  0  0  0  0  0  0  0  0  0  0
    7.1187   -8.3365   17.0554 C   0  0  0  0  0  0  0  0  0  0  0  0
    4.4918   -8.5343   15.1983 C   0  0  0  0  0  0  0  0  0  0  0  0
   10.8548   -3.7082   19.1284 C   0  0  0  0  0  0  0  0  0  0  0  0
   11.3036   -4.4069   21.2251 C   0  0  0  0  0  0  0  0  0  0  0  0
    3.5378   -9.4412   17.0613 N   0  0  0  0  0  0  0  0  0  0  0  0
    8.2396   -6.2951   16.6153 N   0  0  0  0  0  0  0  0  0  0  0  0
    2.0572  -10.7320   18.3366 C   0  0  0  0  0  0  0  0  0  0  0  0
   11.4137   -3.3732   20.3416 N   0  0  0  0  0  0  0  0  0  0  0  0
    1.3698   -9.7016   16.4202 N   0  0  0  0  0  0  0  0  0  0  0  0
    2.3240   -9.9688   17.2869 C   0  0  0  0  0  0  0  0  0  0  0  0
   10.8789   -2.9230   18.1072 N   0  0  0  0  0  0  0  0  0  0  0  0
    9.5250   -4.2017   16.5105 C   0  0  0  0  0  0  0  0  0  0  0  0
    7.3476   -6.4226   15.6428 C   0  0  0  0  0  0  0  0  0  0  0  0
   10.6304   -5.4510   20.5348 C   0  0  0  0  0  0  0  0  0  0  0  0
  1  7  1  0
  1  8  4  0
  1 10  4  0
  2 11  4  0
  2 15  4  0
  3  6  1  0
  3 16  1  0
  4  5  1  0
  4 13  1  0
  4 17  1  0
  5 16  1  0
  5 28  1  0
  6 20  1  0
  7 12  2  0
  8 18  4  0
  8 29  4  0
  9 28  2  0
 10 21  1  0
 10 27  4  0
 11 24  4  0
 12 16  1  0
 12 21  1  0
 13 17  1  0
 13 20  1  0
 14 26  4  0
 14 27  4  0
 15 22  4  0
 18 23  4  0
 18 26  4  0
 19 23  4  0
 19 29  4  0
 20 25  1  0
 21 28  1  0
 22 25  4  0
 24 25  4  0
M  END
$$$$

 Created by Python create_sdf_string function

 29 37  0  0  0  0  0  0  0  0999 V2000
    9.5835   -5.7272   18.3364 C   0  0  0  0  0  0  0  0  0  0  0  0
   -0.0400  -11.0016   17.6230 N   0  0  0  0  0  0  0  0  0  0  0  0
    5.9971   -9.1294   17.6561 C   0  0  0  0  0  0  0  0  0  0  0  0
    5.0887   -7.5504   15.8608 C   0  0  0  0  0  0  0  0  0  0  0  0
    6.6189   -7.6771   15.7606 C   0  0  0  0  0  0  0  0  0  0  0  0
    4.7549   -9.8032   17.5894 C   0  0  0  0  0  0  0  0  0  0  0  0
    9.0373   -7.0197   18.5282 C   0  0  0  0  0  0  0  0  0  0  0  0
   10.2953   -5.0009   19.2443 C   0  0  0  0  0  0  0  0  0  0  0  0
    7.1770   -5.6624   14.8113 O   0  0  0  0  0  0  0  0  0  0  0  0
    9.1491   -5.3207   17.1003 C   0  0  0  0  0  0  0  0  0  0  0  0
    0.1985  -10.2609   16.6020 C   0  0  0  0  0  0  0  0  0  0  0  0
    8.2150   -7.3212   17.5067 C   0  0  0  0  0  0  0  0  0  0  0  0
    3.5887   -8.3014   16.1140 C   0  0  0  0  0  0  0  0  0  0  0  0
   10.2933   -3.1567   16.9214 C   0  0  0  0  0  0  0  0  0  0  0  0
    0.8681  -11.2239   18.5350 C   0  0  0  0  0  0  0  0  0  0  0  0
    7.1160   -8.3302   17.0516 C   0  0  0  0  0  0  0  0  0  0  0  0
    4.5030   -8.5338   15.2016 C   0  0  0  0  0  0  0  0  0  0  0  0
   10.8474   -3.7104   19.1320 C   0  0  0  0  0  0  0  0  0  0  0  0
   11.3032   -4.4204   21.2389 C   0  0  0  0  0  0  0  0  0  0  0  0
    3.5593   -9.4309   17.0525 N   0  0  0  0  0  0  0  0  0  0  0  0
    8.2441   -6.3035   16.6145 N   0  0  0  0  0  0  0  0  0  0  0  0
    2.0663  -10.7250   18.3309 C   0  0  0  0  0  0  0  0  0  0  0  0
   11.4124   -3.3533   20.3332 N   0  0  0  0  0  0  0  0  0  0  0  0
    1.3679   -9.6930   16.4521 N   0  0  0  0  0  0  0  0  0  0  0  0
    2.3122   -9.9592   17.3064 C   0  0  0  0  0  0  0  0  0  0  0  0
   10.8786   -2.9125   18.0969 N   0  0  0  0  0  0  0  0  0  0  0  0
    9.5228   -4.1968   16.4951 C   0  0  0  0  0  0  0  0  0  0  0  0
    7.3434   -6.4211   15.6454 C   0  0  0  0  0  0  0  0  0  0  0  0
   10.6364   -5.4464   20.5399 C   0  0  0  0  0  0  0  0  0  0  0  0
  1  7  1  0
  1  8  4  0
  1 10  4  0
  1 13  2  0
  2 11  4  0
  2 15  4  0
  3  6  1  0
  3 16  1  0
  4  5  1  0
  4 13  1  0
  4 17  1  0
  5 16  1  0
  5 28  1  0
  6 20  1  0
  7 12  2  0
  8 18  4  0
  8 29  4  0
  9 28  2  0
 10 21  1  0
 10 27  4  0
 11 24  4  0
 12 16  1  0
 12 21  1  0
 13 17  1  0
 13 20  1  0
 14 26  4  0
 14 27  4  0
 15 22  4  0
 18 23  4  0
 18 26  4  0
 19 23  4  0
 19 29  4  0
 20 25  1  0
 21 28  1  0
 22 25  4  0
 23 24  3  0
 24 25  4  0
M  END
$$$$

 Created by Python create_sdf_string function

 29 35  0  0  0  0  0  0  0  0999 V2000
    9.5805   -5.7134   18.3388 C   0  0  0  0  0  0  0  0  0  0  0  0
   -0.0488  -11.0174   17.6505 N   0  0  0  0  0  0  0  0  0  0  0  0
    5.9665   -9.1484   17.6157 C   0  0  0  0  0  0  0  0  0  0  0  0
    5.0869   -7.5494   15.8521 C   0  0  0  0  0  0  0  0  0  0  0  0
    6.6246   -7.6667   15.7648 C   0  0  0  0  0  0  0  0  0  0  0  0
    4.7464   -9.8074   17.5911 C   0  0  0  0  0  0  0  0  0  0  0  0
    9.0519   -7.0175   18.5311 C   0  0  0  0  0  0  0  0  0  0  0  0
   10.3002   -5.0010   19.2268 C   0  0  0  0  0  0  0  0  0  0  0  0
    7.1942   -5.6494   14.8183 O   0  0  0  0  0  0  0  0  0  0  0  0
    9.1509   -5.3273   17.0968 C   0  0  0  0  0  0  0  0  0  0  0  0
    0.1956  -10.2674   16.6268 C   0  0  0  0  0  0  0  0  0  0  0  0
    8.2255   -7.3189   17.5022 C   0  0  0  0  0  0  0  0  0  0  0  0
    3.5565   -8.3181   16.1221 C   0  0  0  0  0  0  0  0  0  0  0  0
   10.3000   -3.1503   16.9253 C   0  0  0  0  0  0  0  0  0  0  0  0
    0.8848  -11.2448   18.5452 C   0  0  0  0  0  0  0  0  0  0  0  0
    7.1184   -8.3376   17.0491 C   0  0  0  0  0  0  0  0  0  0  0  0
    4.4862   -8.5118   15.2241 C   0  0  0  0  0  0  0  0  0  0  0  0
   10.8542   -3.7066   19.1308 C   0  0  0  0  0  0  0  0  0  0  0  0
   11.3055   -4.4215   21.2344 C   0  0  0  0  0  0  0  0  0  0  0  0
    3.5295   -9.4287   17.0712 N   0  0  0  0  0  0  0  0  0  0  0  0
    8.2514   -6.2939   16.6151 N   0  0  0  0  0  0  0  0  0  0  0  0
    2.0621  -10.7400   18.3530 C   0  0  0  0  0  0  0  0  0  0  0  0
   11.4216   -3.3845   20.3472 N   0  0  0  0  0  0  0  0  0  0  0  0
    1.3529   -9.6991   16.4625 N   0  0  0  0  0  0  0  0  0  0  0  0
    2.3183   -9.9649   17.3108 C   0  0  0  0  0  0  0  0  0  0  0  0
   10.8808   -2.9079   18.1100 N   0  0  0  0  0  0  0  0  0  0  0  0
    9.5296   -4.1881   16.5035 C   0  0  0  0  0  0  0  0  0  0  0  0
    7.3552   -6.4188   15.6454 C   0  0  0  0  0  0  0  0  0  0  0  0
   10.6261   -5.4486   20.5376 C   0  0  0  0  0  0  0  0  0  0  0  0
  1  7  1  0
  1  8  4  0
  1 10  4  0
  2 11  4  0
  2 15  4  0
  3  6  1  0
  3 16  1  0
  4  5  1  0
  4 13  1  0
  4 17  1  0
  5 16  1  0
  5 28  1  0
  6 20  1  0
  7 12  2  0
  8 18  4  0
  8 29  4  0
  9 28  2  0
 10 21  1  0
 10 27  4  0
 11 24  4  0
 12 16  1  0
 12 21  1  0
 13 17  1  0
 13 20  1  0
 14 26  4  0
 14 27  4  0
 15 22  4  0
 18 23  4  0
 18 26  4  0
 19 23  4  0
 19 29  4  0
 20 25  1  0
 21 28  1  0
 22 25  4  0
 24 25  4  0
M  END
$$$$

 Created by Python create_sdf_string function

 29 36  0  0  0  0  0  0  0  0999 V2000
    9.5873   -5.7162   18.3254 C   0  0  0  0  0  0  0  0  0  0  0  0
   -0.0428  -11.0093   17.6398 N   0  0  0  0  0  0  0  0  0  0  0  0
    5.9687   -9.1498   17.6144 C   0  0  0  0  0  0  0  0  0  0  0  0
    5.1013   -7.5553   15.8620 C   0  0  0  0  0  0  0  0  0  0  0  0
    6.6246   -7.6654   15.7597 C   0  0  0  0  0  0  0  0  0  0  0  0
    4.7596   -9.7977   17.5860 C   0  0  0  0  0  0  0  0  0  0  0  0
    9.0489   -7.0176   18.5300 C   0  0  0  0  0  0  0  0  0  0  0  0
   10.2867   -5.0009   19.2261 C   0  0  0  0  0  0  0  0  0  0  0  0
    7.1973   -5.6662   14.8229 O   0  0  0  0  0  0  0  0  0  0  0  0
    9.1580   -5.3196   17.0875 C   0  0  0  0  0  0  0  0  0  0  0  0
    0.1905  -10.2637   16.6408 C   0  0  0  0  0  0  0  0  0  0  0  0
    8.2308   -7.3168   17.4967 C   0  0  0  0  0  0  0  0  0  0  0  0
    3.5554   -8.3095   16.1133 C   0  0  0  0  0  0  0  0  0  0  0  0
   10.2948   -3.1598   16.9244 C   0  0  0  0  0  0  0  0  0  0  0  0
    0.8810  -11.2511   18.5511 C   0  0  0  0  0  0  0  0  0  0  0  0
    7.1199   -8.3336   17.0500 C   0  0  0  0  0  0  0  0  0  0  0  0
    4.4902   -8.5036   15.2228 C   0  0  0  0  0  0  0  0  0  0  0  0
   10.8441   -3.7054   19.1261 C   0  0  0  0  0  0  0  0  0  0  0  0
   11.3084   -4.4124   21.2331 C   0  0  0  0  0  0  0  0  0  0  0  0
    3.5345   -9.4307   17.0730 N   0  0  0  0  0  0  0  0  0  0  0  0
    8.2511   -6.3006   16.6234 N   0  0  0  0  0  0  0  0  0  0  0  0
    2.0655  -10.7391   18.3430 C   0  0  0  0  0  0  0  0  0  0  0  0
   11.4270   -3.3887   20.3436 N   0  0  0  0  0  0  0  0  0  0  0  0
    1.3531   -9.6958   16.4632 N   0  0  0  0  0  0  0  0  0  0  0  0
    2.3148   -9.9713   17.3164 C   0  0  0  0  0  0  0  0  0  0  0  0
   10.8820   -2.9102   18.1132 N   0  0  0  0  0  0  0  0  0  0  0  0
    9.5268   -4.1776   16.4843 C   0  0  0  0  0  0  0  0  0  0  0  0
    7.3441   -6.4199   15.6510 C   0  0  0  0  0  0  0  0  0  0  0  0
   10.6279   -5.4562   20.5423 C   0  0  0  0  0  0  0  0  0  0  0  0
  1  7  1  0
  1  8  4  0
  1 10  4  0
  2 11  4  0
  2 14  4  0
  2 15  4  0
  3  6  1  0
  3 16  1  0
  4  5  1  0
  4 13  1  0
  4 17  1  0
  5 16  1  0
  5 28  1  0
  6 20  1  0
  7 12  2  0
  8 18  4  0
  8 29  4  0
  9 28  2  0
 10 21  1  0
 10 27  4  0
 11 24  4  0
 12 16  1  0
 12 21  1  0
 13 17  1  0
 13 20  1  0
 14 26  4  0
 14 27  4  0
 15 22  4  0
 18 23  4  0
 18 26  4  0
 19 23  4  0
 19 29  4  0
 20 25  1  0
 21 28  1  0
 22 25  4  0
 24 25  4  0
M  END
$$$$

 Created by Python create_sdf_string function

 29 35  0  0  0  0  0  0  0  0999 V2000
    9.5849   -5.7038   18.3306 C   0  0  0  0  0  0  0  0  0  0  0  0
   -0.0494  -11.0307   17.6753 N   0  0  0  0  0  0  0  0  0  0  0  0
    5.9603   -9.1662   17.5879 C   0  0  0  0  0  0  0  0  0  0  0  0
    5.1066   -7.5362   15.8447 C   0  0  0  0  0  0  0  0  0  0  0  0
    6.6255   -7.6565   15.7718 C   0  0  0  0  0  0  0  0  0  0  0  0
    4.7431   -9.8062   17.5841 C   0  0  0  0  0  0  0  0  0  0  0  0
    9.0615   -7.0128   18.5227 C   0  0  0  0  0  0  0  0  0  0  0  0
   10.2991   -4.9980   19.2219 C   0  0  0  0  0  0  0  0  0  0  0  0
    7.2119   -5.6445   14.8237 O   0  0  0  0  0  0  0  0  0  0  0  0
    9.1539   -5.3222   17.0856 C   0  0  0  0  0  0  0  0  0  0  0  0
    0.1840  -10.2708   16.6575 C   0  0  0  0  0  0  0  0  0  0  0  0
    8.2392   -7.3243   17.4998 C   0  0  0  0  0  0  0  0  0  0  0  0
    3.5260   -8.3293   16.1230 C   0  0  0  0  0  0  0  0  0  0  0  0
   10.3035   -3.1474   16.9316 C   0  0  0  0  0  0  0  0  0  0  0  0
    0.8909  -11.2688   18.5584 C   0  0  0  0  0  0  0  0  0  0  0  0
    7.1164   -8.3448   17.0473 C   0  0  0  0  0  0  0  0  0  0  0  0
    4.4777   -8.4986   15.2393 C   0  0  0  0  0  0  0  0  0  0  0  0
   10.8592   -3.7056   19.1339 C   0  0  0  0  0  0  0  0  0  0  0  0
   11.3098   -4.4220   21.2322 C   0  0  0  0  0  0  0  0  0  0  0  0
    3.5065   -9.4332   17.0768 N   0  0  0  0  0  0  0  0  0  0  0  0
    8.2567   -6.2947   16.6123 N   0  0  0  0  0  0  0  0  0  0  0  0
    2.0648  -10.7579   18.3651 C   0  0  0  0  0  0  0  0  0  0  0  0
   11.4347   -3.3908   20.3469 N   0  0  0  0  0  0  0  0  0  0  0  0
    1.3353   -9.7021   16.4780 N   0  0  0  0  0  0  0  0  0  0  0  0
    2.3081   -9.9740   17.3234 C   0  0  0  0  0  0  0  0  0  0  0  0
   10.8794   -2.9099   18.1166 N   0  0  0  0  0  0  0  0  0  0  0  0
    9.5338   -4.1783   16.4960 C   0  0  0  0  0  0  0  0  0  0  0  0
    7.3650   -6.4142   15.6482 C   0  0  0  0  0  0  0  0  0  0  0  0
   10.6184   -5.4617   20.5416 C   0  0  0  0  0  0  0  0  0  0  0  0
  1  7  1  0
  1  8  4  0
  1 10  4  0
  2 11  4  0
  2 15  4  0
  3  6  1  0
  3 16  1  0
  4  5  1  0
  4 13  1  0
  4 17  1  0
  5 16  1  0
  5 28  1  0
  6 20  1  0
  7 12  2  0
  8 18  4  0
  8 29  4  0
  9 28  2  0
 10 21  1  0
 10 27  4  0
 11 24  4  0
 12 16  1  0
 12 21  1  0
 13 17  1  0
 13 20  1  0
 14 26  4  0
 14 27  4  0
 15 22  4  0
 18 23  4  0
 18 26  4  0
 19 23  4  0
 19 29  4  0
 20 25  1  0
 21 28  1  0
 22 25  4  0
 24 25  4  0
M  END
$$$$

 Created by Python create_sdf_string function

 29 36  0  0  0  0  0  0  0  0999 V2000
    9.5857   -5.7010   18.3372 C   0  0  0  0  0  0  0  0  0  0  0  0
   -0.0470  -11.0333   17.6759 N   0  0  0  0  0  0  0  0  0  0  0  0
    5.9635   -9.1688   17.5861 C   0  0  0  0  0  0  0  0  0  0  0  0
    5.1081   -7.5364   15.8441 C   0  0  0  0  0  0  0  0  0  0  0  0
    6.6284   -7.6573   15.7674 C   0  0  0  0  0  0  0  0  0  0  0  0
    4.7434   -9.8060   17.5824 C   0  0  0  0  0  0  0  0  0  0  0  0
    9.0680   -7.0144   18.5207 C   0  0  0  0  0  0  0  0  0  0  0  0
   10.3009   -4.9986   19.2201 C   0  0  0  0  0  0  0  0  0  0  0  0
    7.2119   -5.6514   14.8242 O   0  0  0  0  0  0  0  0  0  0  0  0
    9.1556   -5.3271   17.0845 C   0  0  0  0  0  0  0  0  0  0  0  0
    0.1829  -10.2777   16.6596 C   0  0  0  0  0  0  0  0  0  0  0  0
    8.2387   -7.3299   17.5035 C   0  0  0  0  0  0  0  0  0  0  0  0
    3.5252   -8.3347   16.1235 C   0  0  0  0  0  0  0  0  0  0  0  0
   10.3024   -3.1430   16.9299 C   0  0  0  0  0  0  0  0  0  0  0  0
    0.8926  -11.2663   18.5549 C   0  0  0  0  0  0  0  0  0  0  0  0
    7.1142   -8.3455   17.0482 C   0  0  0  0  0  0  0  0  0  0  0  0
    4.4745   -8.5027   15.2401 C   0  0  0  0  0  0  0  0  0  0  0  0
   10.8527   -3.7025   19.1303 C   0  0  0  0  0  0  0  0  0  0  0  0
   11.3093   -4.4271   21.2299 C   0  0  0  0  0  0  0  0  0  0  0  0
    3.5074   -9.4402   17.0754 N   0  0  0  0  0  0  0  0  0  0  0  0
    8.2583   -6.2911   16.6139 N   0  0  0  0  0  0  0  0  0  0  0  0
    2.0647  -10.7603   18.3619 C   0  0  0  0  0  0  0  0  0  0  0  0
   11.4356   -3.3903   20.3491 N   0  0  0  0  0  0  0  0  0  0  0  0
    1.3311   -9.7047   16.4814 N   0  0  0  0  0  0  0  0  0  0  0  0
    2.3054   -9.9749   17.3243 C   0  0  0  0  0  0  0  0  0  0  0  0
   10.8750   -2.9149   18.1152 N   0  0  0  0  0  0  0  0  0  0  0  0
    9.5349   -4.1746   16.4956 C   0  0  0  0  0  0  0  0  0  0  0  0
    7.3648   -6.4093   15.6450 C   0  0  0  0  0  0  0  0  0  0  0  0
   10.6170   -5.4639   20.5435 C   0  0  0  0  0  0  0  0  0  0  0  0
  1  7  1  0
  1  8  4  0
  1 10  4  0
  1 26  1  0
  2 11  4  0
  2 15  4  0
  3  6  1  0
  3 16  1  0
  4  5  1  0
  4 13  1  0
  4 17  1  0
  5 16  1  0
  5 28  1  0
  6 20  1  0
  7 12  2  0
  8 18  4  0
  8 29  4  0
  9 28  2  0
 10 21  1  0
 10 27  4  0
 11 24  4  0
 12 16  1  0
 12 21  1  0
 13 17  1  0
 13 20  1  0
 14 26  4  0
 14 27  4  0
 15 22  4  0
 18 23  4  0
 18 26  4  0
 19 23  4  0
 19 29  4  0
 20 25  1  0
 21 28  1  0
 22 25  4  0
 24 25  4  0
M  END
$$$$

 Created by Python create_sdf_string function

 29 34  0  0  0  0  0  0  0  0999 V2000
    9.5918   -5.6990   18.3305 C   0  0  0  0  0  0  0  0  0  0  0  0
   -0.0525  -11.0515   17.7005 N   0  0  0  0  0  0  0  0  0  0  0  0
    5.9502   -9.1882   17.5577 C   0  0  0  0  0  0  0  0  0  0  0  0
    5.1252   -7.5173   15.8255 C   0  0  0  0  0  0  0  0  0  0  0  0
    6.6256   -7.6444   15.7727 C   0  0  0  0  0  0  0  0  0  0  0  0
    4.7275   -9.8126   17.5838 C   0  0  0  0  0  0  0  0  0  0  0  0
    9.0765   -7.0154   18.5249 C   0  0  0  0  0  0  0  0  0  0  0  0
   10.3017   -4.9933   19.2214 C   0  0  0  0  0  0  0  0  0  0  0  0
    7.2278   -5.6308   14.8222 O   0  0  0  0  0  0  0  0  0  0  0  0
    9.1564   -5.3226   17.0883 C   0  0  0  0  0  0  0  0  0  0  0  0
    0.1711  -10.2884   16.6836 C   0  0  0  0  0  0  0  0  0  0  0  0
    8.2498   -7.3323   17.5033 C   0  0  0  0  0  0  0  0  0  0  0  0
    3.5007   -8.3469   16.1244 C   0  0  0  0  0  0  0  0  0  0  0  0
   10.3083   -3.1400   16.9389 C   0  0  0  0  0  0  0  0  0  0  0  0
    0.8980  -11.2876   18.5707 C   0  0  0  0  0  0  0  0  0  0  0  0
    7.1106   -8.3515   17.0421 C   0  0  0  0  0  0  0  0  0  0  0  0
    4.4749   -8.4967   15.2556 C   0  0  0  0  0  0  0  0  0  0  0  0
   10.8646   -3.7039   19.1369 C   0  0  0  0  0  0  0  0  0  0  0  0
   11.3128   -4.4312   21.2307 C   0  0  0  0  0  0  0  0  0  0  0  0
    3.4866   -9.4458   17.0807 N   0  0  0  0  0  0  0  0  0  0  0  0
    8.2669   -6.2958   16.6160 N   0  0  0  0  0  0  0  0  0  0  0  0
    2.0650  -10.7740   18.3765 C   0  0  0  0  0  0  0  0  0  0  0  0
   11.4412   -3.3980   20.3482 N   0  0  0  0  0  0  0  0  0  0  0  0
    1.3133   -9.7160   16.4981 N   0  0  0  0  0  0  0  0  0  0  0  0
    2.2949   -9.9879   17.3369 C   0  0  0  0  0  0  0  0  0  0  0  0
   10.8851   -2.9026   18.1242 N   0  0  0  0  0  0  0  0  0  0  0  0
    9.5371   -4.1753   16.5022 C   0  0  0  0  0  0  0  0  0  0  0  0
    7.3777   -6.4069   15.6497 C   0  0  0  0  0  0  0  0  0  0  0  0
   10.6148   -5.4654   20.5396 C   0  0  0  0  0  0  0  0  0  0  0  0
  1  7  1  0
  1  8  4  0
  1 10  4  0
  2 11  4  0
  2 15  4  0
  3  6  1  0
  3 16  1  0
  4  5  1  0
  4 17  1  0
  5 16  1  0
  5 28  1  0
  6 20  1  0
  7 12  2  0
  8 18  4  0
  8 29  4  0
  9 28  2  0
 10 21  1  0
 10 27  4  0
 11 24  4  0
 12 16  1  0
 12 21  1  0
 13 17  1  0
 13 20  1  0
 14 26  4  0
 14 27  4  0
 15 22  4  0
 18 23  4  0
 18 26  4  0
 19 23  4  0
 19 29  4  0
 20 25  1  0
 21 28  1  0
 22 25  4  0
 24 25  4  0
M  END
$$$$

 Created by Python create_sdf_string function

 29 34  0  0  0  0  0  0  0  0999 V2000
    9.5918   -5.6990   18.3305 C   0  0  0  0  0  0  0  0  0  0  0  0
   -0.0525  -11.0515   17.7005 N   0  0  0  0  0  0  0  0  0  0  0  0
    5.9502   -9.1882   17.5577 C   0  0  0  0  0  0  0  0  0  0  0  0
    5.1252   -7.5173   15.8255 C   0  0  0  0  0  0  0  0  0  0  0  0
    6.6256   -7.6444   15.7727 C   0  0  0  0  0  0  0  0  0  0  0  0
    4.7275   -9.8126   17.5838 C   0  0  0  0  0  0  0  0  0  0  0  0
    9.0765   -7.0154   18.5249 C   0  0  0  0  0  0  0  0  0  0  0  0
   10.3017   -4.9933   19.2214 C   0  0  0  0  0  0  0  0  0  0  0  0
    7.2278   -5.6308   14.8222 O   0  0  0  0  0  0  0  0  0  0  0  0
    9.1564   -5.3226   17.0883 C   0  0  0  0  0  0  0  0  0  0  0  0
    0.1711  -10.2884   16.6836 C   0  0  0  0  0  0  0  0  0  0  0  0
    8.2498   -7.3323   17.5033 C   0  0  0  0  0  0  0  0  0  0  0  0
    3.5007   -8.3469   16.1244 C   0  0  0  0  0  0  0  0  0  0  0  0
   10.3083   -3.1400   16.9389 C   0  0  0  0  0  0  0  0  0  0  0  0
    0.8980  -11.2876   18.5707 C   0  0  0  0  0  0  0  0  0  0  0  0
    7.1106   -8.3515   17.0421 C   0  0  0  0  0  0  0  0  0  0  0  0
    4.4749   -8.4967   15.2556 C   0  0  0  0  0  0  0  0  0  0  0  0
   10.8646   -3.7039   19.1369 C   0  0  0  0  0  0  0  0  0  0  0  0
   11.3128   -4.4312   21.2307 C   0  0  0  0  0  0  0  0  0  0  0  0
    3.4866   -9.4458   17.0807 N   0  0  0  0  0  0  0  0  0  0  0  0
    8.2669   -6.2958   16.6160 N   0  0  0  0  0  0  0  0  0  0  0  0
    2.0650  -10.7740   18.3765 C   0  0  0  0  0  0  0  0  0  0  0  0
   11.4412   -3.3980   20.3482 N   0  0  0  0  0  0  0  0  0  0  0  0
    1.3133   -9.7160   16.4981 N   0  0  0  0  0  0  0  0  0  0  0  0
    2.2949   -9.9879   17.3369 C   0  0  0  0  0  0  0  0  0  0  0  0
   10.8851   -2.9026   18.1242 N   0  0  0  0  0  0  0  0  0  0  0  0
    9.5371   -4.1753   16.5022 C   0  0  0  0  0  0  0  0  0  0  0  0
    7.3777   -6.4069   15.6497 C   0  0  0  0  0  0  0  0  0  0  0  0
   10.6148   -5.4654   20.5396 C   0  0  0  0  0  0  0  0  0  0  0  0
  1  7  1  0
  1  8  4  0
  1 10  4  0
  2 11  4  0
  2 15  4  0
  3  6  1  0
  3 16  1  0
  4  5  1  0
  4 17  1  0
  5 16  1  0
  5 28  1  0
  6 20  1  0
  7 12  2  0
  8 18  4  0
  8 29  4  0
  9 28  2  0
 10 21  1  0
 10 27  4  0
 11 24  4  0
 12 16  1  0
 12 21  1  0
 13 17  1  0
 13 20  1  0
 14 26  4  0
 14 27  4  0
 15 22  4  0
 18 23  4  0
 18 26  4  0
 19 23  4  0
 19 29  4  0
 20 25  1  0
 21 28  1  0
 22 25  4  0
 24 25  4  0
M  END
$$$$

 Created by Python create_sdf_string function

 29 43  0  0  0  0  0  0  0  0999 V2000
    8.5475   -7.7259   16.7797 N   0  0  0  0  0  0  0  0  0  0  0  0
    9.6528   -7.2063   17.9919 Cl  0  0  0  0  0  0  0  0  0  0  0  0
    7.0578   -5.8563   18.8550 P   0  0  0  0  0  0  0  0  0  0  0  0
    8.4392   -7.8873   18.1819 N   0  0  0  0  0  0  0  0  0  0  0  0
    7.1366   -7.7689   17.9861 B   0  0  0  0  0  0  0  0  0  0  0  0
    6.1522   -8.5138   16.8379 I   0  0  0  0  0  0  0  0  0  0  0  0
    8.6517   -9.3475   17.1039 P   0  0  0  0  0  0  0  0  0  0  0  0
    9.9724   -3.1784   17.3354 C   0  0  0  0  0  0  0  0  0  0  0  0
   10.6432   -4.5079   19.0682 C   0  0  0  0  0  0  0  0  0  0  0  0
    8.2287   -7.9743   17.5224 O   0  0  0  0  0  0  0  0  0  0  0  0
   11.3983   -3.2331   20.2321 N   0  0  0  0  0  0  0  0  0  0  0  0
    7.7611   -6.3706   16.3831 N   0  0  0  0  0  0  0  0  0  0  0  0
    7.6642   -7.1404   17.9257 C   0  0  0  0  0  0  0  0  0  0  0  0
   11.0821   -3.1124   18.1967 C   0  0  0  0  0  0  0  0  0  0  0  0
    9.3720   -4.5088   16.4523 C   0  0  0  0  0  0  0  0  0  0  0  0
    8.4008   -8.4455   18.0860 Cl  0  0  0  0  0  0  0  0  0  0  0  0
    7.9359   -8.5770   19.1993 He  0  0  0  0  0  0  0  0  0  0  0  0
    7.8826   -6.9609   17.7123 He  0  0  0  0  0  0  0  0  0  0  0  0
    7.4356   -7.6151   15.6127 He  0  0  0  0  0  0  0  0  0  0  0  0
    6.2557   -9.1135   16.1350 He  0  0  0  0  0  0  0  0  0  0  0  0
    7.2015   -7.5565   16.5218 He  0  0  0  0  0  0  0  0  0  0  0  0
    6.2592   -8.4298   16.9692 He  0  0  0  0  0  0  0  0  0  0  0  0
    8.1784   -7.7237   16.9905 He  0  0  0  0  0  0  0  0  0  0  0  0
    8.1842   -9.1436   19.1709 He  0  0  0  0  0  0  0  0  0  0  0  0
    8.2698   -8.3971   15.7068 He  0  0  0  0  0  0  0  0  0  0  0  0
   11.4477   -4.5267   21.8532 He  0  0  0  0  0  0  0  0  0  0  0  0
    7.6132   -8.5174   17.7567 He  0  0  0  0  0  0  0  0  0  0  0  0
    8.0714   -8.3450   18.0524 He  0  0  0  0  0  0  0  0  0  0  0  0
    8.7542   -8.1911   16.8832 He  0  0  0  0  0  0  0  0  0  0  0  0
  1  6  3  0
  1 11  1  0
  1 13  2  0
  1 14  3  0
  2  8  3  0
  2  9  4  0
  2 14  1  0
  2 16  1  0
  3  5  1  0
  3  6  3  0
  3 12  2  0
  3 14  1  0
  4  7  3  0
  4 10  4  0
  4 12  4  0
  4 14  3  0
  4 15  4  0
  5  7  1  0
  5 11  2  0
  5 16  4  0
  6  9  1  0
  6 10  3  0
  6 11  1  0
  6 12  3  0
  6 14  1  0
  7  8  4  0
  7 12  1  0
  8 13  1  0
  8 14  4  0
  8 15  4  0
  8 16  1  0
  9 11  4  0
  9 16  2  0
 10 11  1  0
 10 13  3  0
 10 14  1  0
 10 15  4  0
 10 16  4  0
 11 16  4  0
 12 14  2  0
 13 16  4  0
 14 15  1  0
 14 16  2  0
M  END
$$$$

 Created by Python create_sdf_string function

 29  5  0  0  0  0  0  0  0  0999 V2000
    7.7937   -8.1129   19.1867 F   0  0  0  0  0  0  0  0  0  0  0  0
    8.6521   -6.1032   17.8879 F   0  0  0  0  0  0  0  0  0  0  0  0
    8.5963   -7.1682   16.2826 F   0  0  0  0  0  0  0  0  0  0  0  0
   10.1207   -5.9015   18.7222 C   0  0  0  0  0  0  0  0  0  0  0  0
    7.2438   -7.5886   15.3745 F   0  0  0  0  0  0  0  0  0  0  0  0
    5.9178   -8.8642   15.9917 F   0  0  0  0  0  0  0  0  0  0  0  0
    7.7162   -6.0271   18.8404 F   0  0  0  0  0  0  0  0  0  0  0  0
    6.5692   -7.2397   16.1476 F   0  0  0  0  0  0  0  0  0  0  0  0
    8.9994   -7.3046   18.5543 F   0  0  0  0  0  0  0  0  0  0  0  0
    6.5439   -7.5431   18.1546 F   0  0  0  0  0  0  0  0  0  0  0  0
    5.3363   -8.1804   16.9080 F   0  0  0  0  0  0  0  0  0  0  0  0
    8.5321   -8.8772   16.9983 F   0  0  0  0  0  0  0  0  0  0  0  0
    5.4556   -8.2159   17.1150 F   0  0  0  0  0  0  0  0  0  0  0  0
   10.6422   -3.7007   17.5471 C   0  0  0  0  0  0  0  0  0  0  0  0
    8.1878   -7.4214   16.7598 F   0  0  0  0  0  0  0  0  0  0  0  0
    8.1548   -8.4214   19.2210 F   0  0  0  0  0  0  0  0  0  0  0  0
    8.0833   -8.4105   15.3433 F   0  0  0  0  0  0  0  0  0  0  0  0
   10.7173   -4.4103   19.3307 C   0  0  0  0  0  0  0  0  0  0  0  0
   10.8232   -4.5576   20.7323 C   0  0  0  0  0  0  0  0  0  0  0  0
    7.0172   -8.4245   17.7023 F   0  0  0  0  0  0  0  0  0  0  0  0
    8.2859   -7.6437   17.6780 C   0  0  0  0  0  0  0  0  0  0  0  0
    8.1404   -7.9790   18.1835 F   0  0  0  0  0  0  0  0  0  0  0  0
   11.0712   -3.8431   19.9917 C   0  0  0  0  0  0  0  0  0  0  0  0
    7.9263   -5.7793   16.1090 F   0  0  0  0  0  0  0  0  0  0  0  0
    7.9448   -6.7908   17.9597 C   0  0  0  0  0  0  0  0  0  0  0  0
   10.8215   -3.6453   18.1535 C   0  0  0  0  0  0  0  0  0  0  0  0
    9.8572   -4.2033   16.6359 F   0  0  0  0  0  0  0  0  0  0  0  0
    8.8308   -8.0468   16.8165 F   0  0  0  0  0  0  0  0  0  0  0  0
    9.0085   -8.0941   18.3468 F   0  0  0  0  0  0  0  0  0  0  0  0
 11 13  1  0
 14 26  4  0
 14 27  4  0
 18 23  4  0
 19 23  4  0
M  END
$$$$

 Created by Python create_sdf_string function

 29 66  0  0  0  0  0  0  0  0999 V2000
    8.1776   -7.3354   19.8450 F   0  0  0  0  0  0  0  0  0  0  0  0
    7.7204   -6.6754   17.6878 F   0  0  0  0  0  0  0  0  0  0  0  0
    8.2251   -7.8344   17.5129 N   0  0  0  0  0  0  0  0  0  0  0  0
   10.6030   -8.7114   19.7520 C   0  0  0  0  0  0  0  0  0  0  0  0
    7.3043   -9.1682   14.7683 N   0  0  0  0  0  0  0  0  0  0  0  0
    5.5405   -9.2076   15.0571 O   0  0  0  0  0  0  0  0  0  0  0  0
    5.0524   -5.7314   14.9020 Cl  0  0  0  0  0  0  0  0  0  0  0  0
    5.4742   -7.1064   17.2006 O   0  0  0  0  0  0  0  0  0  0  0  0
    7.6754   -8.7200   18.0687 C   0  0  0  0  0  0  0  0  0  0  0  0
    5.8800   -8.0481   16.7079 F   0  0  0  0  0  0  0  0  0  0  0  0
   10.3294   -4.3459   17.5472 C   0  0  0  0  0  0  0  0  0  0  0  0
   11.0647   -4.0807   19.6006 C   0  0  0  0  0  0  0  0  0  0  0  0
   10.5096   -4.7690   20.2867 C   0  0  0  0  0  0  0  0  0  0  0  0
    6.6500   -7.2105   18.1773 C   0  0  0  0  0  0  0  0  0  0  0  0
   11.5583   -3.8089   21.0569 C   0  0  0  0  0  0  0  0  0  0  0  0
    7.1576   -7.1058   14.3729 C   0  0  0  0  0  0  0  0  0  0  0  0
    7.4713   -5.0554   16.7481 O   0  0  0  0  0  0  0  0  0  0  0  0
   10.0422   -3.6813   18.6162 C   0  0  0  0  0  0  0  0  0  0  0  0
    9.3042   -3.7868   16.1189 F   0  0  0  0  0  0  0  0  0  0  0  0
    9.2212   -6.6419   18.5298 He  0  0  0  0  0  0  0  0  0  0  0  0
    8.8523   -7.0083   18.7147 He  0  0  0  0  0  0  0  0  0  0  0  0
    7.3394   -7.2235   16.9231 He  0  0  0  0  0  0  0  0  0  0  0  0
    9.2979   -7.4722   16.7304 He  0  0  0  0  0  0  0  0  0  0  0  0
    8.3371   -9.5705   20.1681 He  0  0  0  0  0  0  0  0  0  0  0  0
    9.3168   -8.5398   16.2035 He  0  0  0  0  0  0  0  0  0  0  0  0
    8.1254   -8.7403   15.8628 He  0  0  0  0  0  0  0  0  0  0  0  0
    8.3022   -8.0438   18.2684 He  0  0  0  0  0  0  0  0  0  0  0  0
    8.3533   -7.1522   18.3006 He  0  0  0  0  0  0  0  0  0  0  0  0
    7.9929   -9.3140   17.4284 He  0  0  0  0  0  0  0  0  0  0  0  0
  1  3  4  0
  1  6  2  0
  1  7  2  0
  1  9  1  0
  1 10  1  0
  1 12  4  0
  1 13  3  0
  1 15  4  0
  1 19  3  0
  2  3  4  0
  2  5  1  0
  2  7  4  0
  2  9  1  0
  2 18  2  0
  2 19  1  0
  3  5  4  0
  3  6  1  0
  3  9  2  0
  3 11  4  0
  3 12  4  0
  3 14  2  0
  4  5  4  0
  4  6  2  0
  4  8  2  0
  4  9  3  0
  4 10  1  0
  4 11  3  0
  4 12  4  0
  4 13  4  0
  4 15  2  0
  4 17  1  0
  4 18  2  0
  5  6  1  0
  5  8  3  0
  5  9  2  0
  5 11  1  0
  5 15  3  0
  5 16  2  0
  6  8  4  0
  6 12  1  0
  6 14  3  0
  6 18  3  0
  7  8  3  0
  7 10  2  0
  7 11  1  0
  8 11  4  0
  8 12  2  0
  8 14  3  0
  8 15  4  0
  8 17  1  0
  8 18  4  0
  8 19  2  0
  9 13  1  0
  9 18  3  0
 10 11  3  0
 10 14  3  0
 10 16  2  0
 11 17  4  0
 11 19  4  0
 12 15  4  0
 13 15  4  0
 14 19  2  0
 15 17  1  0
 15 18  4  0
 16 18  1  0
 16 19  3  0
M  END
$$$$

 Created by Python create_sdf_string function

 29  2  0  0  0  0  0  0  0  0999 V2000
    8.9185   -7.1956   19.1887 F   0  0  0  0  0  0  0  0  0  0  0  0
    8.0134   -6.4457   17.6000 F   0  0  0  0  0  0  0  0  0  0  0  0
    8.2684   -7.6849   17.4585 F   0  0  0  0  0  0  0  0  0  0  0  0
    9.8076   -7.9231   18.9871 F   0  0  0  0  0  0  0  0  0  0  0  0
    7.2234   -8.9746   15.4776 F   0  0  0  0  0  0  0  0  0  0  0  0
    5.6960   -8.8278   15.6890 F   0  0  0  0  0  0  0  0  0  0  0  0
    9.9607   -5.7175   18.7990 C   0  0  0  0  0  0  0  0  0  0  0  0
    5.7008   -6.6595   15.5899 F   0  0  0  0  0  0  0  0  0  0  0  0
    9.6294   -6.2342   18.7858 C   0  0  0  0  0  0  0  0  0  0  0  0
    7.2098   -6.9790   16.6742 F   0  0  0  0  0  0  0  0  0  0  0  0
    5.3388   -7.5219   17.2225 F   0  0  0  0  0  0  0  0  0  0  0  0
    7.3100   -8.3480   17.9555 F   0  0  0  0  0  0  0  0  0  0  0  0
    5.6148   -8.1579   16.8756 F   0  0  0  0  0  0  0  0  0  0  0  0
   10.5554   -4.1224   17.6759 C   0  0  0  0  0  0  0  0  0  0  0  0
    9.2029   -7.0669   16.9020 F   0  0  0  0  0  0  0  0  0  0  0  0
    8.2362   -8.3931   19.4122 F   0  0  0  0  0  0  0  0  0  0  0  0
    8.8830   -8.2810   16.3130 F   0  0  0  0  0  0  0  0  0  0  0  0
   10.9494   -4.0837   19.7400 C   0  0  0  0  0  0  0  0  0  0  0  0
   10.7445   -4.7360   20.2573 C   0  0  0  0  0  0  0  0  0  0  0  0
    6.6030   -7.3163   18.1101 F   0  0  0  0  0  0  0  0  0  0  0  0
    7.9167   -8.3981   15.7656 F   0  0  0  0  0  0  0  0  0  0  0  0
    8.6372   -7.8831   18.2146 F   0  0  0  0  0  0  0  0  0  0  0  0
   11.1549   -3.9846   20.6197 C   0  0  0  0  0  0  0  0  0  0  0  0
    7.0754   -7.2402   15.1835 F   0  0  0  0  0  0  0  0  0  0  0  0
    8.2485   -5.3512   16.1794 F   0  0  0  0  0  0  0  0  0  0  0  0
   10.6706   -3.9973   18.5362 C   0  0  0  0  0  0  0  0  0  0  0  0
    9.8315   -4.0430   16.3680 F   0  0  0  0  0  0  0  0  0  0  0  0
    8.8634   -6.6645   18.2595 F   0  0  0  0  0  0  0  0  0  0  0  0
    7.7780   -8.8214   17.2696 F   0  0  0  0  0  0  0  0  0  0  0  0
 14 26  4  0
 18 23  4  0
M  END
$$$$

 Created by Python create_sdf_string function

 29 79  0  0  0  0  0  0  0  0999 V2000
    8.5086   -4.9799   16.7018 S   0  0  0  0  0  0  0  0  0  0  0  0
    8.7011   -8.6241   18.9101 O   0  0  0  0  0  0  0  0  0  0  0  0
    7.5489   -7.6356   16.2910 F   0  0  0  0  0  0  0  0  0  0  0  0
   11.5704   -4.9175   17.1550 N   0  0  0  0  0  0  0  0  0  0  0  0
    5.6324   -8.0995   16.4373 N   0  0  0  0  0  0  0  0  0  0  0  0
    8.5615   -8.2860   18.4559 Cl  0  0  0  0  0  0  0  0  0  0  0  0
   10.5534   -3.3077   17.3552 C   0  0  0  0  0  0  0  0  0  0  0  0
    7.9650   -6.4847   15.9005 N   0  0  0  0  0  0  0  0  0  0  0  0
    7.2200   -7.1866   18.0752 C   0  0  0  0  0  0  0  0  0  0  0  0
    8.4639   -8.4736   16.3441 Br  0  0  0  0  0  0  0  0  0  0  0  0
   10.5744   -3.7593   20.1286 C   0  0  0  0  0  0  0  0  0  0  0  0
   10.4559   -4.7778   20.6435 C   0  0  0  0  0  0  0  0  0  0  0  0
    6.6421   -8.3659   18.9043 O   0  0  0  0  0  0  0  0  0  0  0  0
    6.2154   -6.7338   16.7930 S   0  0  0  0  0  0  0  0  0  0  0  0
   11.1140   -4.6054   21.0818 C   0  0  0  0  0  0  0  0  0  0  0  0
    8.1075   -6.1378   15.2456 F   0  0  0  0  0  0  0  0  0  0  0  0
    8.9497   -7.1730   17.3935 S   0  0  0  0  0  0  0  0  0  0  0  0
   10.7136   -4.0200   18.3698 N   0  0  0  0  0  0  0  0  0  0  0  0
    9.4596   -3.9201   16.9643 C   0  0  0  0  0  0  0  0  0  0  0  0
   10.2144   -5.4866   17.0601 Cl  0  0  0  0  0  0  0  0  0  0  0  0
    9.3498   -7.0720   19.1710 He  0  0  0  0  0  0  0  0  0  0  0  0
    8.3459   -7.1525   17.7384 He  0  0  0  0  0  0  0  0  0  0  0  0
    4.4950   -7.6471   15.5876 He  0  0  0  0  0  0  0  0  0  0  0  0
   10.6409   -6.3952   20.1939 He  0  0  0  0  0  0  0  0  0  0  0  0
    5.3870   -7.0682   15.4236 He  0  0  0  0  0  0  0  0  0  0  0  0
    7.5571   -7.3499   18.0829 He  0  0  0  0  0  0  0  0  0  0  0  0
    7.2253   -8.8573   16.2339 He  0  0  0  0  0  0  0  0  0  0  0  0
    7.0657   -8.9675   17.2208 He  0  0  0  0  0  0  0  0  0  0  0  0
    6.4493   -8.8330   16.4162 He  0  0  0  0  0  0  0  0  0  0  0  0
  1  3  1  0
  1  6  2  0
  1  8  3  0
  1  9  4  0
  1 10  2  0
  1 11  1  0
  1 12  3  0
  1 13  1  0
  1 15  2  0
  1 19  1  0
  1 20  1  0
  2  5  3  0
  2  7  2  0
  2 10  1  0
  2 12  1  0
  2 13  4  0
  2 17  1  0
  2 19  2  0
  3  5  1  0
  3  6  4  0
  3  7  4  0
  3  8  1  0
  3  9  4  0
  3 10  1  0
  3 14  1  0
  3 16  1  0
  3 19  1  0
  4  7  2  0
  4  8  1  0
  4 11  4  0
  4 12  3  0
  4 13  3  0
  4 14  1  0
  4 15  1  0
  4 18  4  0
  4 19  1  0
  5  7  4  0
  5 12  4  0
  5 13  1  0
  5 14  1  0
  5 15  1  0
  5 18  3  0
  5 19  4  0
  6  7  3  0
  6  8  3  0
  6 10  2  0
  6 14  4  0
  6 20  1  0
  7  9  1  0
  7 11  4  0
  7 13  4  0
  7 16  1  0
  8  9  3  0
  8 12  1  0
  8 15  4  0
  8 16  1  0
  8 18  1  0
  9 16  1  0
  9 17  4  0
  9 19  2  0
 10 12  3  0
 10 17  4  0
 10 18  2  0
 10 19  2  0
 10 20  2  0
 11 13  3  0
 11 14  1  0
 12 17  2  0
 13 15  3  0
 13 16  4  0
 13 18  3  0
 14 16  2  0
 14 19  1  0
 15 16  4  0
 15 18  1  0
 16 20  3  0
 17 18  4  0
 17 19  3  0
 17 20  1  0
M  END
$$$$

 Created by Python create_sdf_string function

 29  1  0  0  0  0  0  0  0  0999 V2000
    9.9187   -6.4652   19.0165 F   0  0  0  0  0  0  0  0  0  0  0  0
    9.0747   -4.8528   16.3494 F   0  0  0  0  0  0  0  0  0  0  0  0
    8.6058   -6.7047   17.6413 C   0  0  0  0  0  0  0  0  0  0  0  0
    8.8786   -8.0597   18.5204 F   0  0  0  0  0  0  0  0  0  0  0  0
    7.5699   -7.4868   16.1339 F   0  0  0  0  0  0  0  0  0  0  0  0
    4.6834   -8.2176   16.3820 F   0  0  0  0  0  0  0  0  0  0  0  0
   10.5360   -5.6413   19.9154 C   0  0  0  0  0  0  0  0  0  0  0  0
    5.4794   -7.3186   15.7349 F   0  0  0  0  0  0  0  0  0  0  0  0
   11.0291   -4.1885   17.4955 C   0  0  0  0  0  0  0  0  0  0  0  0
    7.7015   -7.2683   17.8843 F   0  0  0  0  0  0  0  0  0  0  0  0
    5.4661   -8.2197   16.7484 F   0  0  0  0  0  0  0  0  0  0  0  0
    8.6776   -7.9378   18.1242 F   0  0  0  0  0  0  0  0  0  0  0  0
    7.1889   -8.7993   15.9750 F   0  0  0  0  0  0  0  0  0  0  0  0
   10.9115   -3.5357   17.5442 C   0  0  0  0  0  0  0  0  0  0  0  0
    7.8958   -6.3167   16.0600 F   0  0  0  0  0  0  0  0  0  0  0  0
    7.1307   -7.1024   17.9045 F   0  0  0  0  0  0  0  0  0  0  0  0
    8.4391   -8.4092   16.2058 F   0  0  0  0  0  0  0  0  0  0  0  0
   10.9692   -3.9301   19.9423 C   0  0  0  0  0  0  0  0  0  0  0  0
   10.7892   -4.6194   20.3419 C   0  0  0  0  0  0  0  0  0  0  0  0
    6.2968   -8.3390   18.5175 F   0  0  0  0  0  0  0  0  0  0  0  0
    6.2059   -7.0342   16.6663 F   0  0  0  0  0  0  0  0  0  0  0  0
    6.8364   -8.7232   17.2194 F   0  0  0  0  0  0  0  0  0  0  0  0
   11.0190   -4.3857   20.7491 C   0  0  0  0  0  0  0  0  0  0  0  0
    7.8669   -6.1592   15.7092 F   0  0  0  0  0  0  0  0  0  0  0  0
    9.3080   -6.8637   17.4488 F   0  0  0  0  0  0  0  0  0  0  0  0
   10.9193   -4.0435   18.4806 C   0  0  0  0  0  0  0  0  0  0  0  0
    9.9229   -3.9763   16.3859 F   0  0  0  0  0  0  0  0  0  0  0  0
   10.2605   -5.0090   17.2386 C   0  0  0  0  0  0  0  0  0  0  0  0
    6.0822   -8.8770   16.3300 F   0  0  0  0  0  0  0  0  0  0  0  0
 15 24  1  0
M  END
$$$$

 Created by Python create_sdf_string function

 29 55  0  0  0  0  0  0  0  0999 V2000
    9.4332   -6.3037   19.2847 C   0  0  0  0  0  0  0  0  0  0  0  0
    8.7755   -6.4680   16.2866 Cl  0  0  0  0  0  0  0  0  0  0  0  0
   10.0265   -9.3185   16.8903 O   0  0  0  0  0  0  0  0  0  0  0  0
    4.6219   -8.7008   16.4784 C   0  0  0  0  0  0  0  0  0  0  0  0
   10.6302   -5.7777   19.5445 C   0  0  0  0  0  0  0  0  0  0  0  0
    4.5621   -9.2582   15.5069 Br  0  0  0  0  0  0  0  0  0  0  0  0
   11.4436   -3.5235   18.5612 Se  0  0  0  0  0  0  0  0  0  0  0  0
    8.0304   -6.3378   18.1522 C   0  0  0  0  0  0  0  0  0  0  0  0
    4.4730   -8.0485   17.5912 O   0  0  0  0  0  0  0  0  0  0  0  0
   10.6300   -3.9529   17.8507 C   0  0  0  0  0  0  0  0  0  0  0  0
    6.5923   -5.8007   16.1957 C   0  0  0  0  0  0  0  0  0  0  0  0
   11.0757   -3.5224   19.9213 C   0  0  0  0  0  0  0  0  0  0  0  0
   11.2285   -4.7951   19.8173 C   0  0  0  0  0  0  0  0  0  0  0  0
   10.3625   -4.4123   20.9109 C   0  0  0  0  0  0  0  0  0  0  0  0
    9.1130   -8.9918   16.4782 P   0  0  0  0  0  0  0  0  0  0  0  0
   10.6146   -4.0908   18.4167 C   0  0  0  0  0  0  0  0  0  0  0  0
    9.7652   -3.9628   16.9469 N   0  0  0  0  0  0  0  0  0  0  0  0
   10.8735   -5.6636   16.7260 C   0  0  0  0  0  0  0  0  0  0  0  0
    6.9072  -10.4389   16.0782 Cl  0  0  0  0  0  0  0  0  0  0  0  0
    8.0438   -4.7181   18.4901 He  0  0  0  0  0  0  0  0  0  0  0  0
    7.2616   -6.8941   15.9776 He  0  0  0  0  0  0  0  0  0  0  0  0
    8.2553   -7.6555   18.6881 He  0  0  0  0  0  0  0  0  0  0  0  0
    6.4189   -9.8020   16.9714 He  0  0  0  0  0  0  0  0  0  0  0  0
    6.9073   -7.4291   16.6376 He  0  0  0  0  0  0  0  0  0  0  0  0
    8.3955   -9.8131   16.0129 He  0  0  0  0  0  0  0  0  0  0  0  0
    6.0444   -8.8025   17.4930 He  0  0  0  0  0  0  0  0  0  0  0  0
    5.4882   -8.3983   16.3216 He  0  0  0  0  0  0  0  0  0  0  0  0
    8.1870   -8.2531   16.2328 He  0  0  0  0  0  0  0  0  0  0  0  0
    6.8758   -6.8286   15.9477 He  0  0  0  0  0  0  0  0  0  0  0  0
  1  2  1  0
  1  3  4  0
  1  7  1  0
  1 12  4  0
  1 15  4  0
  1 17  3  0
  2  9  3  0
  2 12  3  0
  3  4  3  0
  3  7  4  0
  3  8  4  0
  3  9  2  0
  3 11  3  0
  3 12  1  0
  3 15  1  0
  3 17  2  0
  4  5  2  0
  4  7  3  0
  4 18  2  0
  5  6  3  0
  5  8  4  0
  5  9  1  0
  5 11  3  0
  5 16  4  0
  5 17  3  0
  5 19  4  0
  6  9  4  0
  6 12  1  0
  6 17  3  0
  6 18  4  0
  7  9  2  0
  7 10  1  0
  7 11  1  0
  7 13  3  0
  7 16  3  0
  7 17  3  0
  8 15  3  0
  8 17  1  0
  8 19  1  0
  9 12  1  0
  9 13  2  0
  9 15  4  0
  9 16  3  0
  9 17  3  0
 10 11  1  0
 10 12  3  0
 11 12  1  0
 11 15  1  0
 11 16  3  0
 11 19  2  0
 12 13  1  0
 13 14  4  0
 14 16  1  0
 15 19  4  0
 16 18  3  0
M  END
$$$$

 Created by Python create_sdf_string function

 29  1  0  0  0  0  0  0  0  0999 V2000
    9.7546   -6.1255   18.8470 F   0  0  0  0  0  0  0  0  0  0  0  0
    8.8778   -5.3207   18.4901 F   0  0  0  0  0  0  0  0  0  0  0  0
    8.8172   -5.9571   16.4900 F   0  0  0  0  0  0  0  0  0  0  0  0
    9.3693   -8.3289   17.3299 F   0  0  0  0  0  0  0  0  0  0  0  0
    7.3547   -6.6967   15.9592 F   0  0  0  0  0  0  0  0  0  0  0  0
    4.4886   -8.5361   16.7228 C   0  0  0  0  0  0  0  0  0  0  0  0
   10.3787   -5.3152   19.4466 C   0  0  0  0  0  0  0  0  0  0  0  0
    4.5079   -8.8957   16.0106 C   0  0  0  0  0  0  0  0  0  0  0  0
   11.1339   -3.4687   18.3773 C   0  0  0  0  0  0  0  0  0  0  0  0
    8.3019   -6.3084   17.8291 C   0  0  0  0  0  0  0  0  0  0  0  0
    4.6576   -8.2272   17.3970 F   0  0  0  0  0  0  0  0  0  0  0  0
    8.4706   -7.6681   18.2577 F   0  0  0  0  0  0  0  0  0  0  0  0
    6.1212   -9.3551   16.9226 F   0  0  0  0  0  0  0  0  0  0  0  0
   10.7943   -3.8202   17.5416 C   0  0  0  0  0  0  0  0  0  0  0  0
    7.1469   -6.1130   16.1367 F   0  0  0  0  0  0  0  0  0  0  0  0
    6.8068   -7.3142   16.9366 F   0  0  0  0  0  0  0  0  0  0  0  0
    7.8278   -8.8192   15.7541 F   0  0  0  0  0  0  0  0  0  0  0  0
   11.1356   -3.7255   20.1001 C   0  0  0  0  0  0  0  0  0  0  0  0
   11.0527   -4.4344   20.0221 C   0  0  0  0  0  0  0  0  0  0  0  0
    5.9962   -8.4388   17.6368 F   0  0  0  0  0  0  0  0  0  0  0  0
    5.1844   -8.1558   16.3710 F   0  0  0  0  0  0  0  0  0  0  0  0
    8.0594   -8.1314   16.2510 F   0  0  0  0  0  0  0  0  0  0  0  0
   10.7613   -4.4188   20.9216 C   0  0  0  0  0  0  0  0  0  0  0  0
    6.7722   -6.6622   16.0247 F   0  0  0  0  0  0  0  0  0  0  0  0
    8.6531   -8.2975   16.8145 F   0  0  0  0  0  0  0  0  0  0  0  0
   10.6923   -4.2151   18.5489 C   0  0  0  0  0  0  0  0  0  0  0  0
    9.8356   -4.0402   16.5443 F   0  0  0  0  0  0  0  0  0  0  0  0
   10.4276   -4.8526   17.0560 F   0  0  0  0  0  0  0  0  0  0  0  0
    6.5983   -9.5745   16.1090 F   0  0  0  0  0  0  0  0  0  0  0  0
  4 25  1  0
M  END
$$$$

 Created by Python create_sdf_string function

 29 56  0  0  0  0  0  0  0  0999 V2000
    8.5161   -5.4715   17.8972 F   0  0  0  0  0  0  0  0  0  0  0  0
    9.3376   -6.5884   17.5504 S   0  0  0  0  0  0  0  0  0  0  0  0
    3.2016   -9.3529   19.0504 C   0  0  0  0  0  0  0  0  0  0  0  0
    9.8372   -4.2782   18.1569 Br  0  0  0  0  0  0  0  0  0  0  0  0
    7.1386   -4.0473   19.6506 C   0  0  0  0  0  0  0  0  0  0  0  0
    4.3503   -9.6940   18.5308 I   0  0  0  0  0  0  0  0  0  0  0  0
    6.8477   -9.8160   17.4198 S   0  0  0  0  0  0  0  0  0  0  0  0
   10.6441   -3.9803   17.6870 C   0  0  0  0  0  0  0  0  0  0  0  0
    6.3430   -6.7942   16.0819 O   0  0  0  0  0  0  0  0  0  0  0  0
    8.0336  -11.6241   15.0168 C   0  0  0  0  0  0  0  0  0  0  0  0
   11.2415   -3.6909   20.3736 C   0  0  0  0  0  0  0  0  0  0  0  0
   11.2797   -4.5490   19.8431 C   0  0  0  0  0  0  0  0  0  0  0  0
    5.3719   -8.8500   16.5050 C   0  0  0  0  0  0  0  0  0  0  0  0
   10.5662   -4.9765   20.7806 C   0  0  0  0  0  0  0  0  0  0  0  0
   10.7587   -3.9772   18.3238 C   0  0  0  0  0  0  0  0  0  0  0  0
   10.1993   -4.5647   16.6786 C   0  0  0  0  0  0  0  0  0  0  0  0
   12.4998   -4.7537   18.0980 N   0  0  0  0  0  0  0  0  0  0  0  0
    7.7026   -9.3126   15.9151 N   0  0  0  0  0  0  0  0  0  0  0  0
   10.3796   -7.3180   18.5425 He  0  0  0  0  0  0  0  0  0  0  0  0
    8.3366   -9.2063   16.4382 He  0  0  0  0  0  0  0  0  0  0  0  0
    5.8473   -6.4388   15.0936 He  0  0  0  0  0  0  0  0  0  0  0  0
    2.5290   -7.6195   16.0631 He  0  0  0  0  0  0  0  0  0  0  0  0
   12.2758   -3.1089   18.4272 He  0  0  0  0  0  0  0  0  0  0  0  0
   10.1197   -9.5369   19.5448 He  0  0  0  0  0  0  0  0  0  0  0  0
    6.9309   -6.3621   16.3156 He  0  0  0  0  0  0  0  0  0  0  0  0
    5.1797   -9.3348   16.7171 He  0  0  0  0  0  0  0  0  0  0  0  0
    8.4276   -9.7533   15.0973 He  0  0  0  0  0  0  0  0  0  0  0  0
    5.5668   -8.3805   16.7075 He  0  0  0  0  0  0  0  0  0  0  0  0
    7.2254   -8.3600   16.5989 He  0  0  0  0  0  0  0  0  0  0  0  0
  1  3  2  0
  1  4  2  0
  1  9  3  0
  1 11  3  0
  1 12  2  0
  1 14  1  0
  1 15  2  0
  2  5  4  0
  2  8  2  0
  2 11  4  0
  2 12  1  0
  2 14  3  0
  2 15  1  0
  2 16  4  0
  2 17  2  0
  3  6  3  0
  3  8  1  0
  3  9  2  0
  3 11  4  0
  3 12  3  0
  3 13  3  0
  3 17  3  0
  4  5  4  0
  4  6  2  0
  4 10  2  0
  4 15  1  0
  4 17  1  0
  5  7  4  0
  5  9  4  0
  5 10  2  0
  6 13  2  0
  6 14  1  0
  6 18  2  0
  7  9  1  0
  7 10  3  0
  7 13  1  0
  7 14  3  0
  7 15  4  0
  7 18  3  0
  8 10  3  0
  8 11  4  0
  8 13  1  0
  8 17  1  0
  9 10  2  0
  9 12  4  0
  9 13  2  0
  9 15  4  0
  9 18  4  0
 10 14  4  0
 10 15  1  0
 10 16  1  0
 11 13  2  0
 11 14  3  0
 12 13  2  0
 14 18  2  0
 16 18  3  0
M  END
$$$$

 Created by Python create_sdf_string function

 29  1  0  0  0  0  0  0  0  0999 V2000
   10.0703   -6.7600   18.4852 C   0  0  0  0  0  0  0  0  0  0  0  0
    8.9487   -5.7668   17.7682 C   0  0  0  0  0  0  0  0  0  0  0  0
    9.2530   -6.3757   17.6235 C   0  0  0  0  0  0  0  0  0  0  0  0
    8.4185   -8.5213   16.8165 C   0  0  0  0  0  0  0  0  0  0  0  0
    6.1978   -6.7298   15.8425 C   0  0  0  0  0  0  0  0  0  0  0  0
    3.6975   -9.7249   17.7666 C   0  0  0  0  0  0  0  0  0  0  0  0
   10.0532   -4.5247   18.1976 C   0  0  0  0  0  0  0  0  0  0  0  0
    3.3854   -8.4305   16.6033 C   0  0  0  0  0  0  0  0  0  0  0  0
   11.5301   -3.1665   18.1589 C   0  0  0  0  0  0  0  0  0  0  0  0
    8.7806   -4.8025   19.3605 C   0  0  0  0  0  0  0  0  0  0  0  0
    4.4637   -9.6531   17.8738 C   0  0  0  0  0  0  0  0  0  0  0  0
    9.4557   -8.1363   18.5339 C   0  0  0  0  0  0  0  0  0  0  0  0
    6.7175   -8.9765   17.3008 C   0  0  0  0  0  0  0  0  0  0  0  0
   10.8884   -3.8664   17.4109 C   0  0  0  0  0  0  0  0  0  0  0  0
    7.4328   -6.3647   16.4254 C   0  0  0  0  0  0  0  0  0  0  0  0
    6.5891   -6.7834   16.3169 C   0  0  0  0  0  0  0  0  0  0  0  0
    7.0062   -9.8779   15.1864 O   0  0  0  0  0  0  0  0  0  0  0  0
   11.1452   -3.9109   20.3947 C   0  0  0  0  0  0  0  0  0  0  0  0
   11.1332   -4.5155   19.7907 C   0  0  0  0  0  0  0  0  0  0  0  0
    4.9801   -8.9938   16.9253 C   0  0  0  0  0  0  0  0  0  0  0  0
    5.0419   -8.6526   16.7066 C   0  0  0  0  0  0  0  0  0  0  0  0
    7.9881   -8.7145   15.5123 C   0  0  0  0  0  0  0  0  0  0  0  0
   10.7178   -4.6709   20.4298 C   0  0  0  0  0  0  0  0  0  0  0  0
    5.4211   -8.3771   16.7984 C   0  0  0  0  0  0  0  0  0  0  0  0
    7.5080   -7.9078   16.7679 C   0  0  0  0  0  0  0  0  0  0  0  0
   10.7542   -4.0261   18.2155 C   0  0  0  0  0  0  0  0  0  0  0  0
    9.9608   -4.3601   16.6479 C   0  0  0  0  0  0  0  0  0  0  0  0
   11.6397   -4.4166   18.0773 C   0  0  0  0  0  0  0  0  0  0  0  0
    7.6354   -8.5939   16.1104 C   0  0  0  0  0  0  0  0  0  0  0  0
  6 11  4  0
M  END
$$$$

 Created by Python create_sdf_string function

 29 27  0  0  0  0  0  0  0  0999 V2000
    3.8023   -8.1953   16.4340 P   0  0  0  0  0  0  0  0  0  0  0  0
    8.9951   -5.4031   19.4368 C   0  0  0  0  0  0  0  0  0  0  0  0
    9.4749   -8.0499   18.3632 C   0  0  0  0  0  0  0  0  0  0  0  0
   10.6151   -3.3803   17.0938 C   0  0  0  0  0  0  0  0  0  0  0  0
    4.8156   -7.4960   16.8161 N   0  0  0  0  0  0  0  0  0  0  0  0
   11.8803   -3.6570   19.8325 C   0  0  0  0  0  0  0  0  0  0  0  0
   10.5428   -3.9804   19.4036 C   0  0  0  0  0  0  0  0  0  0  0  0
    4.8385   -8.2850   15.5636 C   0  0  0  0  0  0  0  0  0  0  0  0
    7.4914   -8.3268   15.9279 F   0  0  0  0  0  0  0  0  0  0  0  0
   10.6506   -4.2572   20.7599 C   0  0  0  0  0  0  0  0  0  0  0  0
    5.5546   -8.3532   15.7849 N   0  0  0  0  0  0  0  0  0  0  0  0
   11.0538   -4.5892   18.3291 C   0  0  0  0  0  0  0  0  0  0  0  0
    9.7954   -3.7940   17.0910 C   0  0  0  0  0  0  0  0  0  0  0  0
   12.5341   -4.5776   17.9789 O   0  0  0  0  0  0  0  0  0  0  0  0
   10.3830   -7.8227   16.7270 He  0  0  0  0  0  0  0  0  0  0  0  0
    9.1295   -4.3712   17.0142 He  0  0  0  0  0  0  0  0  0  0  0  0
    9.3713   -8.6025   16.7838 He  0  0  0  0  0  0  0  0  0  0  0  0
    9.0847   -9.5639   17.4488 He  0  0  0  0  0  0  0  0  0  0  0  0
    5.2079   -5.3435   15.5220 He  0  0  0  0  0  0  0  0  0  0  0  0
    4.5779  -11.0014   18.4836 He  0  0  0  0  0  0  0  0  0  0  0  0
   10.1695   -5.6938   19.3743 He  0  0  0  0  0  0  0  0  0  0  0  0
   10.8778   -3.0518   17.7675 He  0  0  0  0  0  0  0  0  0  0  0  0
    2.6953  -10.1092   20.5939 He  0  0  0  0  0  0  0  0  0  0  0  0
    7.6247   -9.2766   18.5954 He  0  0  0  0  0  0  0  0  0  0  0  0
    7.1958   -6.4823   17.0742 He  0  0  0  0  0  0  0  0  0  0  0  0
    8.5252   -9.2620   14.2296 He  0  0  0  0  0  0  0  0  0  0  0  0
    4.4496   -9.1433   17.7054 He  0  0  0  0  0  0  0  0  0  0  0  0
    7.3148   -9.1463   15.5731 He  0  0  0  0  0  0  0  0  0  0  0  0
    7.9600   -9.4659   15.5010 He  0  0  0  0  0  0  0  0  0  0  0  0
  1  2  1  0
  1  9  2  0
  1 10  4  0
  2  8  1  0
  2  9  2  0
  2 11  3  0
  2 14  3  0
  3  6  2  0
  3  9  1  0
  3 14  3  0
  4  7  4  0
  4 11  2  0
  4 14  3  0
  5  7  1  0
  5 10  4  0
  5 11  3  0
  5 12  3  0
  6 11  1  0
  7  8  4  0
  7 11  2  0
  7 14  1  0
  9 11  4  0
  9 13  2  0
 11 12  3  0
 11 13  2  0
 12 14  3  0
 13 14  3  0
M  END
$$$$

 Created by Python create_sdf_string function

 29  1  0  0  0  0  0  0  0  0999 V2000
    9.5237   -7.1052   17.4420 C   0  0  0  0  0  0  0  0  0  0  0  0
    9.4692   -4.7952   16.7992 C   0  0  0  0  0  0  0  0  0  0  0  0
    8.9199   -7.8943   17.1491 C   0  0  0  0  0  0  0  0  0  0  0  0
    8.7447   -8.4330   17.5639 F   0  0  0  0  0  0  0  0  0  0  0  0
    5.9023   -6.5885   15.7889 F   0  0  0  0  0  0  0  0  0  0  0  0
    4.7148  -10.0871   18.1776 C   0  0  0  0  0  0  0  0  0  0  0  0
   10.2546   -5.6185   19.2204 C   0  0  0  0  0  0  0  0  0  0  0  0
    3.9560   -8.7292   16.7142 C   0  0  0  0  0  0  0  0  0  0  0  0
   11.0952   -3.3612   17.5393 C   0  0  0  0  0  0  0  0  0  0  0  0
    9.6178   -5.5056   19.0152 C   0  0  0  0  0  0  0  0  0  0  0  0
    3.7573  -10.5271   18.4975 O   0  0  0  0  0  0  0  0  0  0  0  0
    9.3312   -7.4829   18.3167 C   0  0  0  0  0  0  0  0  0  0  0  0
    7.1688   -8.4751   17.9944 F   0  0  0  0  0  0  0  0  0  0  0  0
   10.9007   -3.6355   16.8779 C   0  0  0  0  0  0  0  0  0  0  0  0
    7.5097   -6.5047   17.1041 F   0  0  0  0  0  0  0  0  0  0  0  0
    4.9608   -8.1657   16.8824 C   0  0  0  0  0  0  0  0  0  0  0  0
    8.2106   -8.7020   15.1652 F   0  0  0  0  0  0  0  0  0  0  0  0
   11.4498   -3.8891   20.0569 C   0  0  0  0  0  0  0  0  0  0  0  0
   10.8318   -4.1707   19.6598 C   0  0  0  0  0  0  0  0  0  0  0  0
    4.4724   -9.3775   17.5119 C   0  0  0  0  0  0  0  0  0  0  0  0
    4.8643   -8.4187   16.2535 C   0  0  0  0  0  0  0  0  0  0  0  0
    7.4833   -8.1499   16.1204 C   0  0  0  0  0  0  0  0  0  0  0  0
   10.7639   -4.3402   20.7260 C   0  0  0  0  0  0  0  0  0  0  0  0
    5.5309   -8.4084   16.2008 C   0  0  0  0  0  0  0  0  0  0  0  0
    7.0067   -8.6214   15.8806 C   0  0  0  0  0  0  0  0  0  0  0  0
   10.8553   -4.6209   18.3827 C   0  0  0  0  0  0  0  0  0  0  0  0
   10.0406   -4.0657   16.7044 C   0  0  0  0  0  0  0  0  0  0  0  0
   11.6414   -4.3213   18.1503 C   0  0  0  0  0  0  0  0  0  0  0  0
    7.5854   -8.6839   15.6765 C   0  0  0  0  0  0  0  0  0  0  0  0
  6 11  4  0
M  END
$$$$

 Created by Python create_sdf_string function

 29 53  0  0  0  0  0  0  0  0999 V2000
    8.5681   -6.7172   19.7848 N   0  0  0  0  0  0  0  0  0  0  0  0
    9.9551   -5.6765   17.5956 N   0  0  0  0  0  0  0  0  0  0  0  0
    5.0253   -6.4919   16.6254 N   0  0  0  0  0  0  0  0  0  0  0  0
    4.9630   -9.4172   16.2041 C   0  0  0  0  0  0  0  0  0  0  0  0
   11.3613   -3.1330   17.1673 S   0  0  0  0  0  0  0  0  0  0  0  0
    3.7372   -9.7023   18.3573 S   0  0  0  0  0  0  0  0  0  0  0  0
    6.9407   -7.9105   17.4110 N   0  0  0  0  0  0  0  0  0  0  0  0
   10.5637   -3.7668   17.5080 O   0  0  0  0  0  0  0  0  0  0  0  0
    7.6790   -5.5025   18.7061 O   0  0  0  0  0  0  0  0  0  0  0  0
    9.0381   -8.3660   14.5051 N   0  0  0  0  0  0  0  0  0  0  0  0
   10.6762   -3.6612   19.1853 C   0  0  0  0  0  0  0  0  0  0  0  0
    4.6070   -9.6296   20.0730 F   0  0  0  0  0  0  0  0  0  0  0  0
    7.0419   -8.6751   16.2299 N   0  0  0  0  0  0  0  0  0  0  0  0
    7.1198   -8.7474   14.8998 C   0  0  0  0  0  0  0  0  0  0  0  0
   11.0693   -3.7746   19.0213 C   0  0  0  0  0  0  0  0  0  0  0  0
    6.6876   -7.5179   15.2428 P   0  0  0  0  0  0  0  0  0  0  0  0
   10.5887   -7.8452   17.0600 He  0  0  0  0  0  0  0  0  0  0  0  0
    8.5618   -9.4091   17.7814 He  0  0  0  0  0  0  0  0  0  0  0  0
    4.7100   -9.6910   17.9638 He  0  0  0  0  0  0  0  0  0  0  0  0
   11.2727   -7.0957   19.2420 He  0  0  0  0  0  0  0  0  0  0  0  0
    8.6097   -6.2547   18.4930 He  0  0  0  0  0  0  0  0  0  0  0  0
   10.5083   -6.3433   17.5534 He  0  0  0  0  0  0  0  0  0  0  0  0
    4.7131   -9.5758   15.2250 He  0  0  0  0  0  0  0  0  0  0  0  0
   11.8427   -3.7825   19.6193 He  0  0  0  0  0  0  0  0  0  0  0  0
    3.6213   -7.8038   16.9066 He  0  0  0  0  0  0  0  0  0  0  0  0
    7.6013   -7.6244   15.7569 He  0  0  0  0  0  0  0  0  0  0  0  0
   11.0208   -3.7124   20.2968 He  0  0  0  0  0  0  0  0  0  0  0  0
   10.3047   -3.7279   16.2796 He  0  0  0  0  0  0  0  0  0  0  0  0
   12.0931   -4.6046   17.6717 He  0  0  0  0  0  0  0  0  0  0  0  0
  1  3  1  0
  1  4  2  0
  1  5  2  0
  1  6  1  0
  1  7  2  0
  1 10  1  0
  1 12  4  0
  1 13  2  0
  1 14  4  0
  1 15  3  0
  1 16  3  0
  2  3  1  0
  2  5  1  0
  2  8  4  0
  2  9  3  0
  2 13  1  0
  2 16  2  0
  3  5  2  0
  3  6  2  0
  3 11  2  0
  3 16  3  0
  4  5  2  0
  4  6  2  0
  4  9  4  0
  4 11  4  0
  4 13  3  0
  4 14  1  0
  4 15  2  0
  4 16  1  0
  5  6  4  0
  5 12  1  0
  5 13  2  0
  5 14  4  0
  5 15  2  0
  5 16  1  0
  6  8  3  0
  6 11  2  0
  6 14  1  0
  6 15  1  0
  7  9  3  0
  7 10  4  0
  7 11  3  0
  8 10  1  0
  9 13  4  0
 10 15  4  0
 10 16  3  0
 11 12  4  0
 11 13  3  0
 11 16  3  0
 13 14  2  0
 13 15  2  0
 14 15  3  0
 14 16  2  0
M  END
$$$$

 Created by Python create_sdf_string function

 29  0  0  0  0  0  0  0  0  0999 V2000
    8.9884   -6.8138   18.7580 F   0  0  0  0  0  0  0  0  0  0  0  0
    9.8420   -5.5041   17.5811 C   0  0  0  0  0  0  0  0  0  0  0  0
    9.6572   -7.5961   17.5008 F   0  0  0  0  0  0  0  0  0  0  0  0
    8.4559   -8.4610   17.5189 F   0  0  0  0  0  0  0  0  0  0  0  0
    5.4530   -7.3234   16.5347 F   0  0  0  0  0  0  0  0  0  0  0  0
    4.9601   -9.2502   17.6891 C   0  0  0  0  0  0  0  0  0  0  0  0
   10.5813   -6.2784   19.1354 F   0  0  0  0  0  0  0  0  0  0  0  0
    5.0858   -8.8983   16.3197 C   0  0  0  0  0  0  0  0  0  0  0  0
   11.2035   -3.4225   16.9037 C   0  0  0  0  0  0  0  0  0  0  0  0
    8.8309   -6.3834   18.1009 C   0  0  0  0  0  0  0  0  0  0  0  0
    4.0566   -9.5165   17.6534 C   0  0  0  0  0  0  0  0  0  0  0  0
   10.1983   -6.0269   17.8103 C   0  0  0  0  0  0  0  0  0  0  0  0
    7.0476   -7.7385   17.4497 F   0  0  0  0  0  0  0  0  0  0  0  0
   10.6527   -3.7997   17.2133 C   0  0  0  0  0  0  0  0  0  0  0  0
    8.1393   -6.0914   18.3933 F   0  0  0  0  0  0  0  0  0  0  0  0
    4.7927   -8.9332   15.7823 C   0  0  0  0  0  0  0  0  0  0  0  0
    8.5066   -8.1743   15.1759 F   0  0  0  0  0  0  0  0  0  0  0  0
   11.3842   -4.0679   19.8432 C   0  0  0  0  0  0  0  0  0  0  0  0
   10.7289   -4.1519   19.4635 C   0  0  0  0  0  0  0  0  0  0  0  0
    5.3220   -9.3113   18.6516 C   0  0  0  0  0  0  0  0  0  0  0  0
    4.1317   -8.4096   16.7017 C   0  0  0  0  0  0  0  0  0  0  0  0
    7.8148   -7.4816   15.9735 C   0  0  0  0  0  0  0  0  0  0  0  0
   10.9413   -4.1020   20.5633 C   0  0  0  0  0  0  0  0  0  0  0  0
    6.9874   -8.4018   16.4998 C   0  0  0  0  0  0  0  0  0  0  0  0
    6.9494   -8.6146   15.6120 C   0  0  0  0  0  0  0  0  0  0  0  0
   11.0350   -4.1245   19.2103 C   0  0  0  0  0  0  0  0  0  0  0  0
   10.2998   -3.9332   16.3725 C   0  0  0  0  0  0  0  0  0  0  0  0
   11.3113   -4.3257   17.9371 C   0  0  0  0  0  0  0  0  0  0  0  0
    6.6668   -7.5750   15.6337 F   0  0  0  0  0  0  0  0  0  0  0  0
M  END
$$$$

 Created by Python create_sdf_string function

 29 38  0  0  0  0  0  0  0  0999 V2000
   10.3043   -4.3781   17.6842 S   0  0  0  0  0  0  0  0  0  0  0  0
   10.1124   -7.1476   17.5576 N   0  0  0  0  0  0  0  0  0  0  0  0
    6.3778   -7.7276   17.3120 Cl  0  0  0  0  0  0  0  0  0  0  0  0
   10.5112   -3.4161   17.7674 N   0  0  0  0  0  0  0  0  0  0  0  0
    9.7493   -7.0618   20.4734 C   0  0  0  0  0  0  0  0  0  0  0  0
   10.8525   -7.9122   19.7475 N   0  0  0  0  0  0  0  0  0  0  0  0
    7.8642   -6.9028   18.0471 F   0  0  0  0  0  0  0  0  0  0  0  0
   10.4280   -3.4895   17.5971 C   0  0  0  0  0  0  0  0  0  0  0  0
    9.3744   -6.2884   20.2903 P   0  0  0  0  0  0  0  0  0  0  0  0
   11.8107   -4.0623   20.1073 C   0  0  0  0  0  0  0  0  0  0  0  0
   10.5235   -4.3501   19.9274 O   0  0  0  0  0  0  0  0  0  0  0  0
    7.6412   -8.4000   14.2008 O   0  0  0  0  0  0  0  0  0  0  0  0
    6.7936   -8.1806   16.5387 F   0  0  0  0  0  0  0  0  0  0  0  0
   11.1167   -4.0053   18.9366 C   0  0  0  0  0  0  0  0  0  0  0  0
    9.8778   -3.8541   16.2870 C   0  0  0  0  0  0  0  0  0  0  0  0
    9.5001   -4.5508   19.4058 He  0  0  0  0  0  0  0  0  0  0  0  0
    6.2765   -8.8763   18.3953 He  0  0  0  0  0  0  0  0  0  0  0  0
    5.3326   -8.1895   18.2055 He  0  0  0  0  0  0  0  0  0  0  0  0
   10.3500   -4.2258   19.1025 He  0  0  0  0  0  0  0  0  0  0  0  0
    5.6357   -8.8632   15.2785 He  0  0  0  0  0  0  0  0  0  0  0  0
    4.3190   -9.7601   19.2879 He  0  0  0  0  0  0  0  0  0  0  0  0
    5.7640  -10.0189   15.8364 He  0  0  0  0  0  0  0  0  0  0  0  0
    7.2715   -9.2800   15.0033 He  0  0  0  0  0  0  0  0  0  0  0  0
    5.6050   -8.9525   17.8625 He  0  0  0  0  0  0  0  0  0  0  0  0
    3.4611   -8.3110   15.7260 He  0  0  0  0  0  0  0  0  0  0  0  0
   10.6155   -3.8948   20.5008 He  0  0  0  0  0  0  0  0  0  0  0  0
    7.4745   -9.2419   17.1308 He  0  0  0  0  0  0  0  0  0  0  0  0
   11.1761   -5.4766   18.0551 He  0  0  0  0  0  0  0  0  0  0  0  0
    7.0322   -6.6961   14.2457 He  0  0  0  0  0  0  0  0  0  0  0  0
  1  2  4  0
  1  3  3  0
  1  5  2  0
  1 10  1  0
  1 11  3  0
  1 12  1  0
  2  3  3  0
  2  4  1  0
  2 10  4  0
  2 11  1  0
  2 12  2  0
  2 13  4  0
  3  4  3  0
  3  5  4  0
  3  6  4  0
  3  8  2  0
  3 12  1  0
  3 13  2  0
  3 14  1  0
  4 11  3  0
  4 13  2  0
  4 15  3  0
  5  8  4  0
  5  9  1  0
  5 12  2  0
  5 14  2  0
  6  7  2  0
  6  8  2  0
  6 10  2  0
  7  8  4  0
  7 10  1  0
  7 15  2  0
  9 11  1  0
  9 13  2  0
  9 14  1  0
 11 12  4  0
 12 14  1  0
 13 15  2  0
M  END
$$$$

 Created by Python create_sdf_string function

 29  2  0  0  0  0  0  0  0  0999 V2000
    9.9880   -4.7287   19.3699 C   0  0  0  0  0  0  0  0  0  0  0  0
   10.3677   -4.4667   17.2819 C   0  0  0  0  0  0  0  0  0  0  0  0
    9.4396   -6.9184   17.6011 F   0  0  0  0  0  0  0  0  0  0  0  0
    6.4081   -8.3831   18.2606 F   0  0  0  0  0  0  0  0  0  0  0  0
    6.4822   -7.5499   17.3116 F   0  0  0  0  0  0  0  0  0  0  0  0
    5.6180   -8.0557   17.8819 F   0  0  0  0  0  0  0  0  0  0  0  0
   10.6528   -4.3603   19.1796 C   0  0  0  0  0  0  0  0  0  0  0  0
    5.6622   -8.5960   15.7260 C   0  0  0  0  0  0  0  0  0  0  0  0
   10.8969   -3.5134   17.3946 C   0  0  0  0  0  0  0  0  0  0  0  0
    9.9977   -6.8166   19.5968 C   0  0  0  0  0  0  0  0  0  0  0  0
    4.9791   -9.3195   18.2295 F   0  0  0  0  0  0  0  0  0  0  0  0
   10.1631   -7.5592   18.9044 F   0  0  0  0  0  0  0  0  0  0  0  0
    8.1349   -7.0788   17.9105 F   0  0  0  0  0  0  0  0  0  0  0  0
   10.7674   -3.6823   17.0084 C   0  0  0  0  0  0  0  0  0  0  0  0
   10.0345   -6.2753   19.8278 F   0  0  0  0  0  0  0  0  0  0  0  0
    5.8483   -9.3027   15.8510 C   0  0  0  0  0  0  0  0  0  0  0  0
    7.3470   -8.7127   15.5404 C   0  0  0  0  0  0  0  0  0  0  0  0
   11.4554   -4.1330   20.4375 C   0  0  0  0  0  0  0  0  0  0  0  0
   10.6630   -4.4849   20.4497 C   0  0  0  0  0  0  0  0  0  0  0  0
    5.6564   -8.6049   17.6899 C   0  0  0  0  0  0  0  0  0  0  0  0
    4.0922   -8.7043   16.4146 C   0  0  0  0  0  0  0  0  0  0  0  0
    7.8666   -8.4246   15.1914 F   0  0  0  0  0  0  0  0  0  0  0  0
   10.7919   -3.9739   21.0489 C   0  0  0  0  0  0  0  0  0  0  0  0
    7.7181   -8.5990   17.1071 F   0  0  0  0  0  0  0  0  0  0  0  0
    7.0523   -7.8392   16.5592 C   0  0  0  0  0  0  0  0  0  0  0  0
   10.9790   -4.1228   19.0140 C   0  0  0  0  0  0  0  0  0  0  0  0
    9.9438   -3.9680   16.2492 F   0  0  0  0  0  0  0  0  0  0  0  0
   10.7881   -5.2897   18.0544 C   0  0  0  0  0  0  0  0  0  0  0  0
    7.3482   -6.8654   15.4167 F   0  0  0  0  0  0  0  0  0  0  0  0
 10 15  1  0
 17 22  1  0
M  END
$$$$

 Created by Python create_sdf_string function

 29 32  0  0  0  0  0  0  0  0999 V2000
   10.5993   -4.8296   18.5757 C   0  0  0  0  0  0  0  0  0  0  0  0
    9.6649   -5.2292   16.6217 F   0  0  0  0  0  0  0  0  0  0  0  0
    5.8242   -9.3500   17.8937 O   0  0  0  0  0  0  0  0  0  0  0  0
    5.1593   -8.0626   17.6163 Se  0  0  0  0  0  0  0  0  0  0  0  0
   11.6766   -7.8087   18.2894 F   0  0  0  0  0  0  0  0  0  0  0  0
   10.1753   -3.2857   16.6046 C   0  0  0  0  0  0  0  0  0  0  0  0
    7.7572   -6.8992   21.1742 N   0  0  0  0  0  0  0  0  0  0  0  0
   11.2374   -4.5328   20.0203 C   0  0  0  0  0  0  0  0  0  0  0  0
    3.5190   -8.5898   16.9298 C   0  0  0  0  0  0  0  0  0  0  0  0
   11.0426   -4.4252   20.6267 I   0  0  0  0  0  0  0  0  0  0  0  0
    7.5616   -9.5682   17.5446 F   0  0  0  0  0  0  0  0  0  0  0  0
   11.1593   -4.0431   18.9202 O   0  0  0  0  0  0  0  0  0  0  0  0
    9.8609   -3.7587   16.1407 Cl  0  0  0  0  0  0  0  0  0  0  0  0
    9.9738   -3.5165   18.9483 O   0  0  0  0  0  0  0  0  0  0  0  0
    9.5791   -8.4264   17.6809 He  0  0  0  0  0  0  0  0  0  0  0  0
    6.1038   -8.6822   17.6656 He  0  0  0  0  0  0  0  0  0  0  0  0
    5.4023   -7.4428   17.1608 He  0  0  0  0  0  0  0  0  0  0  0  0
   10.0508   -4.9052   18.4268 He  0  0  0  0  0  0  0  0  0  0  0  0
    4.1564   -8.8491   14.4383 He  0  0  0  0  0  0  0  0  0  0  0  0
   10.0590   -3.9166   19.5265 He  0  0  0  0  0  0  0  0  0  0  0  0
    9.0638   -6.7751   20.3670 He  0  0  0  0  0  0  0  0  0  0  0  0
    8.4661   -7.5093   18.3946 He  0  0  0  0  0  0  0  0  0  0  0  0
    7.1515  -10.3857   16.0724 He  0  0  0  0  0  0  0  0  0  0  0  0
    7.7628   -7.4219   14.6174 He  0  0  0  0  0  0  0  0  0  0  0  0
   11.0403   -4.3401   19.9615 He  0  0  0  0  0  0  0  0  0  0  0  0
    3.9703   -9.2553   16.3855 He  0  0  0  0  0  0  0  0  0  0  0  0
    7.2579   -6.5067   13.3993 He  0  0  0  0  0  0  0  0  0  0  0  0
    6.2083   -9.1460   15.8368 He  0  0  0  0  0  0  0  0  0  0  0  0
    5.9882   -5.3682   15.7789 He  0  0  0  0  0  0  0  0  0  0  0  0
  1  3  4  0
  1  4  4  0
  1  8  2  0
  1 14  1  0
  2  7  1  0
  3  4  4  0
  3  5  1  0
  3  6  1  0
  3  9  1  0
  4  5  1  0
  4  6  4  0
  4  8  2  0
  4 10  3  0
  4 12  2  0
  4 13  3  0
  5  6  2  0
  5  7  4  0
  5 12  3  0
  6  9  4  0
  6 12  4  0
  7  8  4  0
  7 10  4  0
  7 13  3  0
  8 12  3  0
  8 14  1  0
  9 10  4  0
  9 11  1  0
  9 12  3  0
 10 11  2  0
 11 12  2  0
 11 14  1  0
 13 14  3  0
M  END
$$$$

 Created by Python create_sdf_string function

 29  4  0  0  0  0  0  0  0  0999 V2000
   10.5055   -4.7833   18.6193 C   0  0  0  0  0  0  0  0  0  0  0  0
    9.3010   -5.2132   16.6051 F   0  0  0  0  0  0  0  0  0  0  0  0
    9.0412   -8.1034   17.4910 F   0  0  0  0  0  0  0  0  0  0  0  0
    5.8746   -8.6776   17.7946 F   0  0  0  0  0  0  0  0  0  0  0  0
    6.3119   -8.2627   17.6173 F   0  0  0  0  0  0  0  0  0  0  0  0
    5.6507   -7.6768   17.2215 F   0  0  0  0  0  0  0  0  0  0  0  0
   10.0932   -5.0964   18.1650 C   0  0  0  0  0  0  0  0  0  0  0  0
    4.5094   -8.6161   15.3581 C   0  0  0  0  0  0  0  0  0  0  0  0
   10.3701   -4.1250   19.9955 C   0  0  0  0  0  0  0  0  0  0  0  0
    9.8821   -6.6759   19.5543 F   0  0  0  0  0  0  0  0  0  0  0  0
    5.3629   -7.9816   17.4319 F   0  0  0  0  0  0  0  0  0  0  0  0
   10.3291   -7.4112   18.5382 F   0  0  0  0  0  0  0  0  0  0  0  0
    8.4572   -7.5295   17.9036 C   0  0  0  0  0  0  0  0  0  0  0  0
   10.4067   -3.7324   16.5975 C   0  0  0  0  0  0  0  0  0  0  0  0
    8.2886   -7.3382   19.2401 F   0  0  0  0  0  0  0  0  0  0  0  0
    7.0371   -9.1856   15.9337 F   0  0  0  0  0  0  0  0  0  0  0  0
    7.6987   -7.6715   15.4021 F   0  0  0  0  0  0  0  0  0  0  0  0
   11.0912   -4.4775   20.3512 C   0  0  0  0  0  0  0  0  0  0  0  0
   10.9834   -4.4143   20.3855 C   0  0  0  0  0  0  0  0  0  0  0  0
    4.0695   -8.6936   16.7681 C   0  0  0  0  0  0  0  0  0  0  0  0
    3.9733   -8.8107   16.5635 C   0  0  0  0  0  0  0  0  0  0  0  0
    7.2354   -7.1278   15.0910 F   0  0  0  0  0  0  0  0  0  0  0  0
   10.9439   -4.2948   21.2772 C   0  0  0  0  0  0  0  0  0  0  0  0
    7.7300   -8.4820   17.3165 F   0  0  0  0  0  0  0  0  0  0  0  0
    6.1277   -8.7326   16.0068 C   0  0  0  0  0  0  0  0  0  0  0  0
   10.9690   -3.7295   18.6615 C   0  0  0  0  0  0  0  0  0  0  0  0
    9.8020   -3.9444   16.1169 C   0  0  0  0  0  0  0  0  0  0  0  0
   10.5701   -3.7813   18.6084 C   0  0  0  0  0  0  0  0  0  0  0  0
    6.5021   -6.4334   15.8114 F   0  0  0  0  0  0  0  0  0  0  0  0
 13 24  1  0
 14 27  4  0
 17 22  1  0
 22 29  1  0
M  END
$$$$

 Created by Python create_sdf_string function

 29 49  0  0  0  0  0  0  0  0999 V2000
    9.1573   -6.5218   16.3735 N   0  0  0  0  0  0  0  0  0  0  0  0
    7.5062   -9.4906   19.2459 C   0  0  0  0  0  0  0  0  0  0  0  0
    9.8166   -5.1274   16.8569 O   0  0  0  0  0  0  0  0  0  0  0  0
   10.8235   -4.6679   20.0289 C   0  0  0  0  0  0  0  0  0  0  0  0
    4.7760   -9.7762   15.6835 C   0  0  0  0  0  0  0  0  0  0  0  0
   11.9266   -7.1331   18.9793 S   0  0  0  0  0  0  0  0  0  0  0  0
   10.4414   -3.4627   16.9590 C   0  0  0  0  0  0  0  0  0  0  0  0
    7.5021   -9.5826   16.4828 F   0  0  0  0  0  0  0  0  0  0  0  0
    7.1904   -7.5909   14.5462 O   0  0  0  0  0  0  0  0  0  0  0  0
   11.6676   -4.3406   20.2801 C   0  0  0  0  0  0  0  0  0  0  0  0
   11.0579   -4.5547   19.9161 C   0  0  0  0  0  0  0  0  0  0  0  0
    5.1396   -9.3343   14.5904 C   0  0  0  0  0  0  0  0  0  0  0  0
    6.9635   -7.2108   14.1095 S   0  0  0  0  0  0  0  0  0  0  0  0
   11.3488   -4.5218   21.6233 Cl  0  0  0  0  0  0  0  0  0  0  0  0
    9.5652   -4.0715   15.4679 Cl  0  0  0  0  0  0  0  0  0  0  0  0
    9.7097   -4.1229   18.1180 P   0  0  0  0  0  0  0  0  0  0  0  0
    6.5109   -5.5082   14.5619 O   0  0  0  0  0  0  0  0  0  0  0  0
   11.1950   -4.0431   18.9859 He  0  0  0  0  0  0  0  0  0  0  0  0
    7.6089   -7.7307   17.7558 He  0  0  0  0  0  0  0  0  0  0  0  0
    6.2851   -8.6578   16.8550 He  0  0  0  0  0  0  0  0  0  0  0  0
    5.9946   -7.4594   17.1182 He  0  0  0  0  0  0  0  0  0  0  0  0
    4.3355   -9.3829   15.8580 He  0  0  0  0  0  0  0  0  0  0  0  0
    9.9519   -6.4466   21.0197 He  0  0  0  0  0  0  0  0  0  0  0  0
    8.7183   -6.7237   18.0521 He  0  0  0  0  0  0  0  0  0  0  0  0
    8.5922   -6.0702   19.7147 He  0  0  0  0  0  0  0  0  0  0  0  0
    3.4964   -9.0035   16.5838 He  0  0  0  0  0  0  0  0  0  0  0  0
    6.6659  -10.8032   18.0505 He  0  0  0  0  0  0  0  0  0  0  0  0
    6.9234   -9.6664   16.1200 He  0  0  0  0  0  0  0  0  0  0  0  0
   11.6182   -3.2778   18.4387 He  0  0  0  0  0  0  0  0  0  0  0  0
  1  6  2  0
  1 11  2  0
  1 13  1  0
  1 14  1  0
  2  5  3  0
  2  8  1  0
  2 10  2  0
  2 14  4  0
  3  5  2  0
  3  7  4  0
  3  8  3  0
  3 11  4  0
  3 12  1  0
  3 14  2  0
  3 16  3  0
  4  8  3  0
  4 10  4  0
  4 11  4  0
  4 12  3  0
  4 15  3  0
  4 16  1  0
  5  6  1  0
  5  9  3  0
  5 10  1  0
  5 13  3  0
  5 15  3  0
  6  9  3  0
  6 12  4  0
  6 13  2  0
  6 16  3  0
  6 17  2  0
  7 11  4  0
  7 13  3  0
  7 15  4  0
  8 12  1  0
  8 14  3  0
  9 12  4  0
  9 13  1  0
  9 14  3  0
 10 13  4  0
 11 12  1  0
 11 16  4  0
 11 17  2  0
 12 13  1  0
 12 16  1  0
 13 14  1  0
 14 16  4  0
 15 17  1  0
 16 17  3  0
M  END
$$$$

 Created by Python create_sdf_string function

 29  3  0  0  0  0  0  0  0  0999 V2000
   11.0139   -4.0503   18.8806 C   0  0  0  0  0  0  0  0  0  0  0  0
    8.8129   -6.3238   16.6133 C   0  0  0  0  0  0  0  0  0  0  0  0
    7.9912   -7.5796   17.7380 C   0  0  0  0  0  0  0  0  0  0  0  0
    7.4129   -8.3504   18.3105 C   0  0  0  0  0  0  0  0  0  0  0  0
    6.0933   -8.2850   17.0285 C   0  0  0  0  0  0  0  0  0  0  0  0
    6.0475   -7.5198   17.3049 C   0  0  0  0  0  0  0  0  0  0  0  0
    9.6418   -5.0544   16.9873 C   0  0  0  0  0  0  0  0  0  0  0  0
    4.3207   -8.7529   16.3556 C   0  0  0  0  0  0  0  0  0  0  0  0
   10.9533   -4.5837   20.1589 C   0  0  0  0  0  0  0  0  0  0  0  0
   10.6277   -5.6075   20.5727 C   0  0  0  0  0  0  0  0  0  0  0  0
    4.8477   -9.1119   16.0432 C   0  0  0  0  0  0  0  0  0  0  0  0
   10.8181   -6.5876   19.0738 C   0  0  0  0  0  0  0  0  0  0  0  0
    8.7790   -6.8605   17.8886 C   0  0  0  0  0  0  0  0  0  0  0  0
   10.4403   -3.8641   16.6261 C   0  0  0  0  0  0  0  0  0  0  0  0
    9.1935   -6.2870   18.8999 C   0  0  0  0  0  0  0  0  0  0  0  0
    7.4834   -8.9103   16.5310 F   0  0  0  0  0  0  0  0  0  0  0  0
    7.2989   -7.5774   15.3150 F   0  0  0  0  0  0  0  0  0  0  0  0
   11.4499   -4.2603   20.6223 C   0  0  0  0  0  0  0  0  0  0  0  0
   11.0015   -4.4021   19.6533 C   0  0  0  0  0  0  0  0  0  0  0  0
    3.9756   -8.7293   16.7733 C   0  0  0  0  0  0  0  0  0  0  0  0
    5.3195   -8.7397   15.3477 C   0  0  0  0  0  0  0  0  0  0  0  0
    7.0461   -7.2401   15.3158 C   0  0  0  0  0  0  0  0  0  0  0  0
   11.2694   -4.3251   21.7966 O   0  0  0  0  0  0  0  0  0  0  0  0
    6.0532   -9.5108   17.5598 C   0  0  0  0  0  0  0  0  0  0  0  0
    6.7924   -9.0999   16.0683 C   0  0  0  0  0  0  0  0  0  0  0  0
   11.1763   -3.2728   18.1972 C   0  0  0  0  0  0  0  0  0  0  0  0
    9.5637   -4.0870   16.0091 C   0  0  0  0  0  0  0  0  0  0  0  0
   10.2126   -4.5450   17.9430 C   0  0  0  0  0  0  0  0  0  0  0  0
    6.8994   -5.9912   15.3356 F   0  0  0  0  0  0  0  0  0  0  0  0
  8 20  1  0
 14 27  4  0
 17 22  1  0
M  END
$$$$

 Created by Python create_sdf_string function

 29 63  0  0  0  0  0  0  0  0999 V2000
   10.8027   -4.0583   17.6906 F   0  0  0  0  0  0  0  0  0  0  0  0
    8.1417   -5.8245   17.0789 S   0  0  0  0  0  0  0  0  0  0  0  0
    7.1140   -7.1885   18.4834 N   0  0  0  0  0  0  0  0  0  0  0  0
    7.2474   -9.5545   16.9102 O   0  0  0  0  0  0  0  0  0  0  0  0
    6.2872   -8.8755   18.3142 Cl  0  0  0  0  0  0  0  0  0  0  0  0
    8.5078   -4.2242   16.3488 C   0  0  0  0  0  0  0  0  0  0  0  0
   11.0782   -6.5515   18.9307 P   0  0  0  0  0  0  0  0  0  0  0  0
    4.3797   -7.2486   16.3651 C   0  0  0  0  0  0  0  0  0  0  0  0
   10.5105   -3.1784   15.9812 O   0  0  0  0  0  0  0  0  0  0  0  0
    8.3686   -5.2603   19.2212 C   0  0  0  0  0  0  0  0  0  0  0  0
    7.6039   -8.3643   16.6066 F   0  0  0  0  0  0  0  0  0  0  0  0
    6.9030   -6.8319   15.5062 N   0  0  0  0  0  0  0  0  0  0  0  0
   11.9392   -4.4279   20.0288 C   0  0  0  0  0  0  0  0  0  0  0  0
   10.9933   -4.5120   19.6344 C   0  0  0  0  0  0  0  0  0  0  0  0
    3.3741   -8.2389   16.0306 N   0  0  0  0  0  0  0  0  0  0  0  0
   11.4210   -3.9498   21.7609 O   0  0  0  0  0  0  0  0  0  0  0  0
   10.9633   -2.8984   17.8750 C   0  0  0  0  0  0  0  0  0  0  0  0
    9.8215   -4.1305   15.6710 C   0  0  0  0  0  0  0  0  0  0  0  0
    6.5220   -8.8501   18.5082 He  0  0  0  0  0  0  0  0  0  0  0  0
    2.1370   -8.4606   16.6356 He  0  0  0  0  0  0  0  0  0  0  0  0
   11.0954   -1.4920   20.2687 He  0  0  0  0  0  0  0  0  0  0  0  0
   10.7239   -6.2346   19.6434 He  0  0  0  0  0  0  0  0  0  0  0  0
   10.2799   -6.8177   17.6679 He  0  0  0  0  0  0  0  0  0  0  0  0
    5.0511   -9.0097   16.4327 He  0  0  0  0  0  0  0  0  0  0  0  0
    7.4149   -4.9928   14.0821 He  0  0  0  0  0  0  0  0  0  0  0  0
    5.0625  -10.5974   15.8556 He  0  0  0  0  0  0  0  0  0  0  0  0
    6.4872   -9.5838   15.2688 He  0  0  0  0  0  0  0  0  0  0  0  0
    9.7155   -2.9531   16.2873 He  0  0  0  0  0  0  0  0  0  0  0  0
    5.6866   -5.0905   16.5962 He  0  0  0  0  0  0  0  0  0  0  0  0
  1  2  4  0
  1  4  3  0
  1  7  1  0
  1  8  3  0
  1 10  3  0
  1 15  1  0
  1 16  4  0
  2  3  1  0
  2  4  4  0
  2  5  1  0
  2  6  3  0
  2  9  3  0
  2 12  4  0
  2 13  2  0
  2 15  1  0
  2 17  4  0
  2 18  4  0
  3  8  4  0
  3  9  3  0
  3 11  2  0
  3 12  2  0
  3 14  2  0
  3 15  3  0
  3 16  1  0
  3 17  3  0
  4  8  3  0
  4  9  1  0
  4 11  4  0
  4 13  3  0
  4 16  2  0
  5  8  2  0
  5 10  2  0
  5 14  2  0
  5 18  2  0
  6 10  4  0
  6 11  3  0
  6 15  1  0
  6 18  4  0
  7  8  1  0
  7 11  2  0
  7 13  3  0
  7 17  3  0
  7 18  2  0
  8  9  4  0
  8 16  3  0
  9 10  2  0
  9 11  4  0
  9 12  1  0
  9 15  3  0
  9 16  3  0
  9 18  4  0
 10 17  1  0
 11 13  2  0
 11 14  1  0
 11 18  3  0
 12 14  4  0
 12 15  1  0
 12 17  3  0
 12 18  4  0
 13 15  1  0
 13 18  4  0
 15 16  3  0
 15 18  1  0
M  END
$$$$

 Created by Python create_sdf_string function

 29  6  0  0  0  0  0  0  0  0999 V2000
   10.7097   -4.1530   18.1106 C   0  0  0  0  0  0  0  0  0  0  0  0
    8.3050   -6.1922   16.9773 C   0  0  0  0  0  0  0  0  0  0  0  0
    7.4301   -7.3328   17.9838 C   0  0  0  0  0  0  0  0  0  0  0  0
    6.4710   -8.4035   17.9671 C   0  0  0  0  0  0  0  0  0  0  0  0
    7.1743   -9.1380   16.6807 C   0  0  0  0  0  0  0  0  0  0  0  0
    6.1058   -8.5673   17.9849 C   0  0  0  0  0  0  0  0  0  0  0  0
    9.0869   -4.7958   16.3249 C   0  0  0  0  0  0  0  0  0  0  0  0
    3.0797   -8.8557   16.5842 C   0  0  0  0  0  0  0  0  0  0  0  0
   11.3231   -2.8095   20.0835 O   0  0  0  0  0  0  0  0  0  0  0  0
   10.3912   -6.2135   18.9301 C   0  0  0  0  0  0  0  0  0  0  0  0
    4.5663   -7.8894   16.5542 C   0  0  0  0  0  0  0  0  0  0  0  0
   10.5424   -5.6725   19.6847 C   0  0  0  0  0  0  0  0  0  0  0  0
    9.6026   -6.8907   18.2519 C   0  0  0  0  0  0  0  0  0  0  0  0
   10.6912   -3.5860   16.0992 C   0  0  0  0  0  0  0  0  0  0  0  0
    9.2760   -5.6116   18.7736 C   0  0  0  0  0  0  0  0  0  0  0  0
    7.7178   -8.3982   16.7072 C   0  0  0  0  0  0  0  0  0  0  0  0
    7.0812   -7.0012   15.9377 C   0  0  0  0  0  0  0  0  0  0  0  0
   11.3797   -4.4079   20.2516 C   0  0  0  0  0  0  0  0  0  0  0  0
   10.9326   -4.4218   19.9805 C   0  0  0  0  0  0  0  0  0  0  0  0
    3.7138   -8.6233   16.4300 C   0  0  0  0  0  0  0  0  0  0  0  0
    4.7428   -8.8403   16.4242 C   0  0  0  0  0  0  0  0  0  0  0  0
    7.5401   -5.5984   15.3654 C   0  0  0  0  0  0  0  0  0  0  0  0
   11.1443   -4.1535   21.5614 O   0  0  0  0  0  0  0  0  0  0  0  0
    5.1712   -9.7104   16.1940 C   0  0  0  0  0  0  0  0  0  0  0  0
    6.4217   -9.3390   15.6958 C   0  0  0  0  0  0  0  0  0  0  0  0
   10.9979   -3.4692   18.1936 C   0  0  0  0  0  0  0  0  0  0  0  0
    9.8093   -4.1698   16.1701 C   0  0  0  0  0  0  0  0  0  0  0  0
   10.4284   -3.7240   16.4956 C   0  0  0  0  0  0  0  0  0  0  0  0
    6.4440   -6.4856   15.9464 C   0  0  0  0  0  0  0  0  0  0  0  0
  1 26  4  0
  4  6  1  0
  7 27  4  0
 10 13  1  0
 14 27  4  0
 21 24  1  0
M  END
$$$$

 Created by Python create_sdf_string function

 29 42  0  0  0  0  0  0  0  0999 V2000
    5.9876   -9.2662   18.9030 O   0  0  0  0  0  0  0  0  0  0  0  0
    5.5088   -7.3862   16.9724 C   0  0  0  0  0  0  0  0  0  0  0  0
   10.9477   -4.5156   20.5686 Se  0  0  0  0  0  0  0  0  0  0  0  0
    5.4553   -7.5768   16.4792 O   0  0  0  0  0  0  0  0  0  0  0  0
   10.0227   -3.6643   19.9242 O   0  0  0  0  0  0  0  0  0  0  0  0
   10.4750   -3.0756   16.7358 C   0  0  0  0  0  0  0  0  0  0  0  0
    9.5204   -3.9821   17.9198 C   0  0  0  0  0  0  0  0  0  0  0  0
    7.0255   -5.7393   16.6895 Cl  0  0  0  0  0  0  0  0  0  0  0  0
   10.7292   -4.2745   20.1214 C   0  0  0  0  0  0  0  0  0  0  0  0
   10.9929   -4.3660   20.6242 N   0  0  0  0  0  0  0  0  0  0  0  0
    3.2298  -10.0540   15.8617 S   0  0  0  0  0  0  0  0  0  0  0  0
    4.4864   -8.4596   16.1141 O   0  0  0  0  0  0  0  0  0  0  0  0
   10.8137   -4.3568   21.1883 O   0  0  0  0  0  0  0  0  0  0  0  0
    6.5733   -9.5945   15.2230 I   0  0  0  0  0  0  0  0  0  0  0  0
   10.7149   -3.6655   18.1575 Cl  0  0  0  0  0  0  0  0  0  0  0  0
    9.8613   -4.8675   15.9833 C   0  0  0  0  0  0  0  0  0  0  0  0
    6.3860   -6.1125   16.7445 Se  0  0  0  0  0  0  0  0  0  0  0  0
    8.8491   -3.3344   17.5307 He  0  0  0  0  0  0  0  0  0  0  0  0
    8.4685   -5.1337   16.4972 He  0  0  0  0  0  0  0  0  0  0  0  0
    9.3397   -9.2172   17.3165 He  0  0  0  0  0  0  0  0  0  0  0  0
    7.4916   -7.7432   17.6298 He  0  0  0  0  0  0  0  0  0  0  0  0
    9.3920   -5.1616   15.4877 He  0  0  0  0  0  0  0  0  0  0  0  0
    3.0086   -8.5121   16.6215 He  0  0  0  0  0  0  0  0  0  0  0  0
    9.9749   -4.9463   18.9855 He  0  0  0  0  0  0  0  0  0  0  0  0
   10.3672   -7.9552   17.5043 He  0  0  0  0  0  0  0  0  0  0  0  0
    6.1316   -8.3359   16.3080 He  0  0  0  0  0  0  0  0  0  0  0  0
    6.3652   -6.4285   14.4500 He  0  0  0  0  0  0  0  0  0  0  0  0
    4.4921   -8.8284   17.2776 He  0  0  0  0  0  0  0  0  0  0  0  0
   10.6528   -3.7280   15.8371 He  0  0  0  0  0  0  0  0  0  0  0  0
  1  2  2  0
  1  7  4  0
  2  6  3  0
  2  7  3  0
  2 12  1  0
  2 16  4  0
  2 17  3  0
  3  4  4  0
  3  6  1  0
  3  8  3  0
  3  9  3  0
  3 11  2  0
  3 12  2  0
  3 15  2  0
  3 16  2  0
  3 17  4  0
  4  8  2  0
  4 14  3  0
  5  6  3  0
  5  9  3  0
  5 12  3  0
  5 14  4  0
  5 15  4  0
  5 17  4  0
  6  9  3  0
  6 11  3  0
  7  9  3  0
  7 10  4  0
  8 12  1  0
  8 13  2  0
  9 14  4  0
  9 17  4  0
 10 17  3  0
 11 15  4  0
 12 14  3  0
 12 16  3  0
 12 17  2  0
 13 14  1  0
 13 17  1  0
 14 16  3  0
 14 17  2  0
 15 16  4  0
M  END
$$$$

 Created by Python create_sdf_string function

 29  3  0  0  0  0  0  0  0  0999 V2000
    9.8804   -4.0558   17.3467 C   0  0  0  0  0  0  0  0  0  0  0  0
    8.6108   -5.7323   16.6357 C   0  0  0  0  0  0  0  0  0  0  0  0
    8.7137   -8.4877   17.1944 F   0  0  0  0  0  0  0  0  0  0  0  0
    7.7144   -7.7676   17.6401 C   0  0  0  0  0  0  0  0  0  0  0  0
    6.1962   -8.5779   18.4366 F   0  0  0  0  0  0  0  0  0  0  0  0
    5.5692   -7.9064   16.9924 C   0  0  0  0  0  0  0  0  0  0  0  0
    9.0960   -5.1470   16.0080 C   0  0  0  0  0  0  0  0  0  0  0  0
    3.3471   -8.7347   16.5671 C   0  0  0  0  0  0  0  0  0  0  0  0
   10.9815   -4.4757   20.9742 C   0  0  0  0  0  0  0  0  0  0  0  0
   10.1954   -5.1195   19.0816 C   0  0  0  0  0  0  0  0  0  0  0  0
    5.3407   -8.0135   16.5428 C   0  0  0  0  0  0  0  0  0  0  0  0
   10.4784   -3.9805   20.1073 C   0  0  0  0  0  0  0  0  0  0  0  0
    9.2424   -7.5882   17.9304 F   0  0  0  0  0  0  0  0  0  0  0  0
   11.0146   -3.5696   16.4776 C   0  0  0  0  0  0  0  0  0  0  0  0
   10.1779   -4.3476   18.0048 C   0  0  0  0  0  0  0  0  0  0  0  0
    6.2597   -8.4062   16.4090 C   0  0  0  0  0  0  0  0  0  0  0  0
    7.4240   -6.4130   16.4926 C   0  0  0  0  0  0  0  0  0  0  0  0
   10.7608   -4.3928   20.2943 C   0  0  0  0  0  0  0  0  0  0  0  0
   10.9340   -4.3252   20.9910 C   0  0  0  0  0  0  0  0  0  0  0  0
    3.2087   -8.9897   16.2851 C   0  0  0  0  0  0  0  0  0  0  0  0
    4.6611   -8.5697   16.2382 C   0  0  0  0  0  0  0  0  0  0  0  0
    6.5069   -6.7212   15.3231 F   0  0  0  0  0  0  0  0  0  0  0  0
   10.9009   -4.1679   21.8265 O   0  0  0  0  0  0  0  0  0  0  0  0
    4.4660   -8.7320   17.1124 C   0  0  0  0  0  0  0  0  0  0  0  0
    6.7937   -8.9907   15.6506 F   0  0  0  0  0  0  0  0  0  0  0  0
   10.7678   -3.7665   18.2638 C   0  0  0  0  0  0  0  0  0  0  0  0
    9.7582   -4.6040   16.3524 C   0  0  0  0  0  0  0  0  0  0  0  0
   10.9542   -3.6765   15.8223 C   0  0  0  0  0  0  0  0  0  0  0  0
    6.8225   -6.7203   16.5914 C   0  0  0  0  0  0  0  0  0  0  0  0
  3 13  1  0
  8 20  4  0
 14 28  4  0
M  END
$$$$

 Created by Python create_sdf_string function

 29 57  0  0  0  0  0  0  0  0999 V2000
    9.3272   -9.0966   16.9495 N   0  0  0  0  0  0  0  0  0  0  0  0
    8.6293   -7.3846   16.5085 O   0  0  0  0  0  0  0  0  0  0  0  0
    5.5769   -9.2923   16.3397 C   0  0  0  0  0  0  0  0  0  0  0  0
    2.2036   -9.9187   16.2513 C   0  0  0  0  0  0  0  0  0  0  0  0
   11.0388   -4.9110   22.6521 B   0  0  0  0  0  0  0  0  0  0  0  0
   10.0621   -5.9544   20.1209 F   0  0  0  0  0  0  0  0  0  0  0  0
    8.1995   -7.6702   17.9198 F   0  0  0  0  0  0  0  0  0  0  0  0
    6.9346   -7.2510   15.1344 N   0  0  0  0  0  0  0  0  0  0  0  0
    9.9750   -5.4059   17.1947 I   0  0  0  0  0  0  0  0  0  0  0  0
   10.8499   -4.2054   20.0130 C   0  0  0  0  0  0  0  0  0  0  0  0
   10.5980   -4.4414   20.6253 C   0  0  0  0  0  0  0  0  0  0  0  0
    4.9335   -7.2729   18.4801 N   0  0  0  0  0  0  0  0  0  0  0  0
    7.8318   -5.9856   15.3731 O   0  0  0  0  0  0  0  0  0  0  0  0
    3.7224   -8.3432   17.9123 C   0  0  0  0  0  0  0  0  0  0  0  0
   11.1641   -3.3631   18.4001 C   0  0  0  0  0  0  0  0  0  0  0  0
   11.1989   -4.8257   14.7756 P   0  0  0  0  0  0  0  0  0  0  0  0
    7.6683   -6.6887   16.8958 O   0  0  0  0  0  0  0  0  0  0  0  0
    8.8948   -4.2915   17.8013 He  0  0  0  0  0  0  0  0  0  0  0  0
    8.9056   -3.3797   17.0316 He  0  0  0  0  0  0  0  0  0  0  0  0
    4.3856   -8.9540   17.7860 He  0  0  0  0  0  0  0  0  0  0  0  0
   10.9622   -3.9402   16.1969 He  0  0  0  0  0  0  0  0  0  0  0  0
    5.9891   -6.9079   17.0982 He  0  0  0  0  0  0  0  0  0  0  0  0
    9.5381   -2.7190   19.8177 He  0  0  0  0  0  0  0  0  0  0  0  0
   10.9461   -3.5010   16.4631 He  0  0  0  0  0  0  0  0  0  0  0  0
    9.2797   -3.9866   18.6594 He  0  0  0  0  0  0  0  0  0  0  0  0
    4.0838   -7.6886   16.4495 He  0  0  0  0  0  0  0  0  0  0  0  0
   10.5839   -4.9476   22.3387 He  0  0  0  0  0  0  0  0  0  0  0  0
    5.8276   -9.4406   16.2413 He  0  0  0  0  0  0  0  0  0  0  0  0
    9.9846   -4.3954   16.7517 He  0  0  0  0  0  0  0  0  0  0  0  0
  1  2  1  0
  1  9  4  0
  1 10  4  0
  1 12  3  0
  1 13  2  0
  1 16  2  0
  1 17  2  0
  2  6  2  0
  2  7  1  0
  2  9  3  0
  2 10  4  0
  2 11  2  0
  2 12  1  0
  2 14  1  0
  2 15  2  0
  2 16  2  0
  2 17  3  0
  3  7  3  0
  3  8  2  0
  3 11  3  0
  3 12  1  0
  3 17  2  0
  4  5  4  0
  4 10  4  0
  4 11  4  0
  4 13  2  0
  4 14  3  0
  5  8  3  0
  5 14  3  0
  5 15  4  0
  5 16  3  0
  5 17  2  0
  6  7  4  0
  6  9  1  0
  6 10  4  0
  6 11  4  0
  6 13  2  0
  6 16  2  0
  6 17  3  0
  7  8  1  0
  7 10  3  0
  7 12  1  0
  7 17  4  0
  8 13  4  0
  8 15  2  0
  9 10  1  0
  9 13  4  0
  9 16  3  0
 10 12  3  0
 10 13  2  0
 10 16  2  0
 10 17  2  0
 11 16  2  0
 12 13  4  0
 12 16  1  0
 13 15  4  0
 16 17  4  0
M  END
$$$$

 Created by Python create_sdf_string function

 29  4  0  0  0  0  0  0  0  0999 V2000
    9.4349   -4.9594   17.7710 C   0  0  0  0  0  0  0  0  0  0  0  0
    9.5766   -4.1585   16.5338 C   0  0  0  0  0  0  0  0  0  0  0  0
    8.7421   -8.4471   16.7704 F   0  0  0  0  0  0  0  0  0  0  0  0
    8.4357   -7.5488   16.5472 C   0  0  0  0  0  0  0  0  0  0  0  0
    4.2068   -8.8802   17.2332 C   0  0  0  0  0  0  0  0  0  0  0  0
    5.6316   -8.9060   16.2718 C   0  0  0  0  0  0  0  0  0  0  0  0
   11.3129   -3.6945   16.1444 C   0  0  0  0  0  0  0  0  0  0  0  0
    2.8321   -9.2296   16.5313 C   0  0  0  0  0  0  0  0  0  0  0  0
   11.1277   -4.4865   22.4763 O   0  0  0  0  0  0  0  0  0  0  0  0
   10.4553   -5.5322   20.0218 C   0  0  0  0  0  0  0  0  0  0  0  0
    6.3066   -7.3233   17.0145 C   0  0  0  0  0  0  0  0  0  0  0  0
   10.5879   -3.6326   20.1667 C   0  0  0  0  0  0  0  0  0  0  0  0
    8.2430   -7.6585   17.6747 C   0  0  0  0  0  0  0  0  0  0  0  0
   11.3840   -3.5043   16.2347 C   0  0  0  0  0  0  0  0  0  0  0  0
    9.9982   -4.5728   18.8241 C   0  0  0  0  0  0  0  0  0  0  0  0
    6.9652   -7.5859   15.7398 C   0  0  0  0  0  0  0  0  0  0  0  0
    9.6551   -5.5595   17.2298 C   0  0  0  0  0  0  0  0  0  0  0  0
   10.8519   -4.4414   20.1174 C   0  0  0  0  0  0  0  0  0  0  0  0
   10.7967   -4.3947   20.8499 C   0  0  0  0  0  0  0  0  0  0  0  0
    4.3383   -8.3057   16.4677 C   0  0  0  0  0  0  0  0  0  0  0  0
    5.6186   -7.8081   17.8012 C   0  0  0  0  0  0  0  0  0  0  0  0
    7.6028   -5.9356   15.6835 O   0  0  0  0  0  0  0  0  0  0  0  0
   11.0730   -4.5033   22.2482 C   0  0  0  0  0  0  0  0  0  0  0  0
    3.9622   -8.8682   17.2144 C   0  0  0  0  0  0  0  0  0  0  0  0
    5.8442   -8.9840   16.1710 C   0  0  0  0  0  0  0  0  0  0  0  0
   10.9605   -3.6329   18.1912 C   0  0  0  0  0  0  0  0  0  0  0  0
    9.9252   -4.5127   16.7321 C   0  0  0  0  0  0  0  0  0  0  0  0
   11.0740   -3.9265   15.4727 C   0  0  0  0  0  0  0  0  0  0  0  0
    7.7952   -6.7762   16.9873 C   0  0  0  0  0  0  0  0  0  0  0  0
  3  4  1  0
  5 24  4  0
  6 25  4  0
  9 23  2  0
M  END
$$$$

 Created by Python create_sdf_string function

 29 43  0  0  0  0  0  0  0  0999 V2000
    4.9634   -8.6492   19.0428 O   0  0  0  0  0  0  0  0  0  0  0  0
    6.9425   -9.2893   15.5802 B   0  0  0  0  0  0  0  0  0  0  0  0
    3.4707   -9.5945   16.3152 Cl  0  0  0  0  0  0  0  0  0  0  0  0
   10.8739   -4.7707   22.0938 Br  0  0  0  0  0  0  0  0  0  0  0  0
   10.9187   -5.1702   19.1268 N   0  0  0  0  0  0  0  0  0  0  0  0
   10.8962   -3.1241   16.2231 C   0  0  0  0  0  0  0  0  0  0  0  0
    9.7958   -4.6586   18.6294 C   0  0  0  0  0  0  0  0  0  0  0  0
    8.1627   -8.4082   15.5737 C   0  0  0  0  0  0  0  0  0  0  0  0
    8.0916   -5.0231   16.7535 O   0  0  0  0  0  0  0  0  0  0  0  0
   10.6879   -4.7769   20.1079 C   0  0  0  0  0  0  0  0  0  0  0  0
   10.8993   -4.3930   20.3124 C   0  0  0  0  0  0  0  0  0  0  0  0
    5.5441   -7.5375   15.1850 O   0  0  0  0  0  0  0  0  0  0  0  0
    3.8404   -8.2483   17.2692 Cl  0  0  0  0  0  0  0  0  0  0  0  0
   11.0263   -3.0847   18.6410 C   0  0  0  0  0  0  0  0  0  0  0  0
    9.7327   -5.3592   16.3815 C   0  0  0  0  0  0  0  0  0  0  0  0
    7.2588   -5.5991   17.3166 S   0  0  0  0  0  0  0  0  0  0  0  0
    9.4561   -4.1607   17.0481 He  0  0  0  0  0  0  0  0  0  0  0  0
    8.6762   -4.8335   14.7171 He  0  0  0  0  0  0  0  0  0  0  0  0
    8.7279   -9.0116   16.5776 He  0  0  0  0  0  0  0  0  0  0  0  0
    8.6637   -7.4930   15.6738 He  0  0  0  0  0  0  0  0  0  0  0  0
   11.2286   -2.3228   15.6334 He  0  0  0  0  0  0  0  0  0  0  0  0
    5.9252   -7.0713   18.1586 He  0  0  0  0  0  0  0  0  0  0  0  0
    9.8653   -2.7518   20.0803 He  0  0  0  0  0  0  0  0  0  0  0  0
    7.4575   -8.8448   18.6069 He  0  0  0  0  0  0  0  0  0  0  0  0
    3.6149   -7.8713   17.8092 He  0  0  0  0  0  0  0  0  0  0  0  0
    8.0227   -5.3583   16.0448 He  0  0  0  0  0  0  0  0  0  0  0  0
   10.3859   -4.8312   22.2610 He  0  0  0  0  0  0  0  0  0  0  0  0
    4.7238   -7.8070   17.7097 He  0  0  0  0  0  0  0  0  0  0  0  0
   10.8247   -2.5678   14.8697 He  0  0  0  0  0  0  0  0  0  0  0  0
  1  4  2  0
  1  5  2  0
  1  7  1  0
  1  8  1  0
  1  9  3  0
  1 10  2  0
  2  5  3  0
  2  6  2  0
  2 10  3  0
  2 16  2  0
  3  4  2  0
  3  5  2  0
  3  7  3  0
  4 10  4  0
  4 16  4  0
  5  8  1  0
  5  9  3  0
  5 12  1  0
  5 14  1  0
  5 15  2  0
  7  8  4  0
  7 10  3  0
  7 12  4  0
  7 16  2  0
  8 12  3  0
  8 13  3  0
  8 14  2  0
  9 11  3  0
  9 12  2  0
  9 13  2  0
  9 14  2  0
  9 16  1  0
 10 15  1  0
 10 16  1  0
 11 12  3  0
 11 13  4  0
 11 16  1  0
 12 14  4  0
 12 15  1  0
 12 16  2  0
 13 14  1  0
 14 15  3  0
 15 16  3  0
M  END
$$$$

 Created by Python create_sdf_string function

 29  5  0  0  0  0  0  0  0  0999 V2000
   10.1292   -4.2952   17.0938 C   0  0  0  0  0  0  0  0  0  0  0  0
    8.8660   -4.8796   15.8303 C   0  0  0  0  0  0  0  0  0  0  0  0
    8.5348   -8.5681   16.6941 F   0  0  0  0  0  0  0  0  0  0  0  0
    8.3042   -7.7185   15.7178 F   0  0  0  0  0  0  0  0  0  0  0  0
    5.5972   -8.5886   18.4451 C   0  0  0  0  0  0  0  0  0  0  0  0
    7.0911   -8.8641   15.7517 C   0  0  0  0  0  0  0  0  0  0  0  0
   11.6634   -3.3040   15.8402 C   0  0  0  0  0  0  0  0  0  0  0  0
    3.7668   -8.7930   16.5360 C   0  0  0  0  0  0  0  0  0  0  0  0
   11.0006   -4.4344   21.9159 C   0  0  0  0  0  0  0  0  0  0  0  0
   10.5058   -4.8229   19.2750 C   0  0  0  0  0  0  0  0  0  0  0  0
    6.2637   -7.5349   17.8416 C   0  0  0  0  0  0  0  0  0  0  0  0
   10.8153   -3.6163   20.4871 C   0  0  0  0  0  0  0  0  0  0  0  0
    7.3318   -8.2688   17.9488 F   0  0  0  0  0  0  0  0  0  0  0  0
   11.3981   -3.4786   16.2048 C   0  0  0  0  0  0  0  0  0  0  0  0
   10.1833   -4.8349   18.7017 C   0  0  0  0  0  0  0  0  0  0  0  0
    7.8154   -8.2787   15.8811 C   0  0  0  0  0  0  0  0  0  0  0  0
    8.3626   -5.8128   16.8973 C   0  0  0  0  0  0  0  0  0  0  0  0
   10.7429   -4.6772   20.2962 C   0  0  0  0  0  0  0  0  0  0  0  0
   11.0064   -4.5791   20.6056 C   0  0  0  0  0  0  0  0  0  0  0  0
    5.7235   -7.7892   15.8203 C   0  0  0  0  0  0  0  0  0  0  0  0
    4.0732   -8.4230   17.0994 C   0  0  0  0  0  0  0  0  0  0  0  0
    8.1017   -6.0016   16.2540 C   0  0  0  0  0  0  0  0  0  0  0  0
   10.8873   -4.1950   22.2032 C   0  0  0  0  0  0  0  0  0  0  0  0
    4.1801   -8.5267   16.9544 C   0  0  0  0  0  0  0  0  0  0  0  0
    5.0240   -8.1677   17.1742 C   0  0  0  0  0  0  0  0  0  0  0  0
   10.9602   -3.5732   18.4205 C   0  0  0  0  0  0  0  0  0  0  0  0
    9.5265   -5.0500   16.6457 C   0  0  0  0  0  0  0  0  0  0  0  0
   11.3865   -3.4217   15.2442 C   0  0  0  0  0  0  0  0  0  0  0  0
    7.6078   -6.4290   17.3445 C   0  0  0  0  0  0  0  0  0  0  0  0
  4 16  1  0
  6 16  1  0
  7 14  4  0
  7 28  4  0
  9 23  1  0
M  END
$$$$

 Created by Python create_sdf_string function

 29 39  0  0  0  0  0  0  0  0999 V2000
   10.6119   -5.0791   16.4112 C   0  0  0  0  0  0  0  0  0  0  0  0
    7.1614   -4.9971   16.2955 N   0  0  0  0  0  0  0  0  0  0  0  0
    9.2071   -9.1876   15.9485 N   0  0  0  0  0  0  0  0  0  0  0  0
    4.9522   -8.8805   17.4088 C   0  0  0  0  0  0  0  0  0  0  0  0
    7.4663   -9.5013   16.4110 C   0  0  0  0  0  0  0  0  0  0  0  0
    3.2552   -9.5115   16.9624 F   0  0  0  0  0  0  0  0  0  0  0  0
    9.2750   -4.3892   21.1374 P   0  0  0  0  0  0  0  0  0  0  0  0
    9.8618   -3.9929   20.3971 N   0  0  0  0  0  0  0  0  0  0  0  0
    9.1801   -7.5423   18.7511 B   0  0  0  0  0  0  0  0  0  0  0  0
   11.2702   -3.3354   16.2327 C   0  0  0  0  0  0  0  0  0  0  0  0
    9.8156   -5.0475   19.1416 S   0  0  0  0  0  0  0  0  0  0  0  0
    7.3080   -8.5702   15.6999 Cl  0  0  0  0  0  0  0  0  0  0  0  0
   10.7502   -4.7047   20.0527 C   0  0  0  0  0  0  0  0  0  0  0  0
   11.2735   -4.5524   20.9282 C   0  0  0  0  0  0  0  0  0  0  0  0
    6.3319   -6.3526   14.8419 Cl  0  0  0  0  0  0  0  0  0  0  0  0
    7.6182   -5.6423   17.1130 Br  0  0  0  0  0  0  0  0  0  0  0  0
   11.2740   -4.2558   22.4348 C   0  0  0  0  0  0  0  0  0  0  0  0
    9.4052   -5.0988   16.0705 C   0  0  0  0  0  0  0  0  0  0  0  0
    8.9864   -7.6516   17.6027 He  0  0  0  0  0  0  0  0  0  0  0  0
   11.9160   -3.1570   15.5913 He  0  0  0  0  0  0  0  0  0  0  0  0
    5.7292   -7.3540   18.4611 He  0  0  0  0  0  0  0  0  0  0  0  0
   12.0246   -3.4181   21.2887 He  0  0  0  0  0  0  0  0  0  0  0  0
    7.6725   -5.4674   17.5421 He  0  0  0  0  0  0  0  0  0  0  0  0
    4.2366   -7.7185   16.9978 He  0  0  0  0  0  0  0  0  0  0  0  0
    4.7680   -7.6360   16.4767 He  0  0  0  0  0  0  0  0  0  0  0  0
    5.2956   -8.1036   15.0249 He  0  0  0  0  0  0  0  0  0  0  0  0
   11.2783   -3.7568   18.4001 He  0  0  0  0  0  0  0  0  0  0  0  0
   12.5962   -3.9458   14.4725 He  0  0  0  0  0  0  0  0  0  0  0  0
    8.6576   -8.2759   17.9578 He  0  0  0  0  0  0  0  0  0  0  0  0
  1  2  2  0
  1  9  1  0
  1 10  4  0
  1 18  3  0
  2  7  3  0
  2 12  3  0
  2 13  2  0
  2 15  4  0
  2 16  3  0
  2 17  1  0
  3  5  2  0
  3  9  1  0
  3 14  1  0
  3 17  2  0
  3 18  3  0
  4 11  1  0
  5  9  3  0
  5 10  1  0
  5 11  1  0
  5 17  4  0
  5 18  3  0
  6  7  2  0
  6  8  4  0
  7  9  3  0
  7 11  1  0
  7 18  4  0
  8 10  2  0
  8 15  4  0
  9 10  3  0
  9 13  1  0
  9 14  3  0
  9 16  2  0
  9 18  2  0
 10 11  3  0
 11 15  4  0
 12 16  2  0
 13 15  2  0
 13 16  1  0
 16 17  4  0
M  END
$$$$

 Created by Python create_sdf_string function

 29  7  0  0  0  0  0  0  0  0999 V2000
   10.4238   -4.3183   16.5943 C   0  0  0  0  0  0  0  0  0  0  0  0
    7.8380   -5.6560   16.1043 C   0  0  0  0  0  0  0  0  0  0  0  0
    8.9128   -7.7019   17.7709 C   0  0  0  0  0  0  0  0  0  0  0  0
    8.5509   -8.6471   16.0520 F   0  0  0  0  0  0  0  0  0  0  0  0
    5.0223   -8.6450   17.3778 C   0  0  0  0  0  0  0  0  0  0  0  0
    7.3411   -8.7991   16.4796 C   0  0  0  0  0  0  0  0  0  0  0  0
   11.7558   -3.5306   15.8798 C   0  0  0  0  0  0  0  0  0  0  0  0
    3.6428   -8.8325   16.8776 C   0  0  0  0  0  0  0  0  0  0  0  0
   10.3002   -4.1666   20.7632 C   0  0  0  0  0  0  0  0  0  0  0  0
   10.4830   -4.2068   20.4746 C   0  0  0  0  0  0  0  0  0  0  0  0
    6.1641   -7.7719   18.0023 C   0  0  0  0  0  0  0  0  0  0  0  0
   11.8138   -3.8690   21.5838 C   0  0  0  0  0  0  0  0  0  0  0  0
    9.3229   -7.2849   18.4596 C   0  0  0  0  0  0  0  0  0  0  0  0
   11.4866   -3.6847   16.3803 C   0  0  0  0  0  0  0  0  0  0  0  0
   10.2023   -5.0669   18.7958 C   0  0  0  0  0  0  0  0  0  0  0  0
    7.1054   -8.3690   15.9565 C   0  0  0  0  0  0  0  0  0  0  0  0
    8.6512   -5.9003   17.3735 C   0  0  0  0  0  0  0  0  0  0  0  0
   10.8606   -4.5607   19.7855 C   0  0  0  0  0  0  0  0  0  0  0  0
   11.4877   -4.4746   20.9038 C   0  0  0  0  0  0  0  0  0  0  0  0
    6.4024   -6.7587   15.3706 C   0  0  0  0  0  0  0  0  0  0  0  0
    4.4256   -8.2490   16.9710 C   0  0  0  0  0  0  0  0  0  0  0  0
    8.3098   -6.0245   16.9713 C   0  0  0  0  0  0  0  0  0  0  0  0
   11.2487   -4.0284   22.2385 C   0  0  0  0  0  0  0  0  0  0  0  0
    4.9936   -8.0345   16.5745 C   0  0  0  0  0  0  0  0  0  0  0  0
    5.4347   -8.2653   15.6673 C   0  0  0  0  0  0  0  0  0  0  0  0
   11.1562   -4.0786   18.1090 C   0  0  0  0  0  0  0  0  0  0  0  0
    9.5193   -4.6120   16.3576 C   0  0  0  0  0  0  0  0  0  0  0  0
   12.0831   -3.4078   15.0399 C   0  0  0  0  0  0  0  0  0  0  0  0
    8.5868   -8.0826   17.8198 C   0  0  0  0  0  0  0  0  0  0  0  0
  1 27  4  0
  3 29  1  0
  6 16  1  0
  7 14  4  0
  7 28  1  0
 12 23  4  0
 17 22  4  0
M  END
$$$$

 Created by Python create_sdf_string function

 29 36  0  0  0  0  0  0  0  0999 V2000
    7.0304   -5.1064   15.7701 S   0  0  0  0  0  0  0  0  0  0  0  0
    8.5129   -9.4483   17.2693 N   0  0  0  0  0  0  0  0  0  0  0  0
    4.8099   -8.6756   17.9740 C   0  0  0  0  0  0  0  0  0  0  0  0
    8.1967   -9.4355   15.9216 C   0  0  0  0  0  0  0  0  0  0  0  0
    4.9298   -7.4443   17.4307 S   0  0  0  0  0  0  0  0  0  0  0  0
    7.6749   -7.6944   18.8332 Cl  0  0  0  0  0  0  0  0  0  0  0  0
   11.3219   -3.7124   16.5381 C   0  0  0  0  0  0  0  0  0  0  0  0
    7.5666   -8.3311   16.4049 O   0  0  0  0  0  0  0  0  0  0  0  0
   10.7222   -3.9100   19.8306 C   0  0  0  0  0  0  0  0  0  0  0  0
   11.6338   -4.0485   20.8571 C   0  0  0  0  0  0  0  0  0  0  0  0
    5.6676   -5.0009   15.3723 P   0  0  0  0  0  0  0  0  0  0  0  0
   11.0496   -4.0055   22.2290 C   0  0  0  0  0  0  0  0  0  0  0  0
    6.0629   -7.5204   16.3717 S   0  0  0  0  0  0  0  0  0  0  0  0
    9.3824   -4.2312   15.6208 C   0  0  0  0  0  0  0  0  0  0  0  0
   11.4992   -1.8251   15.5769 N   0  0  0  0  0  0  0  0  0  0  0  0
    9.0416   -4.2683   17.7578 He  0  0  0  0  0  0  0  0  0  0  0  0
    9.2398   -9.0907   15.2813 He  0  0  0  0  0  0  0  0  0  0  0  0
   11.6033   -3.9423   16.0854 He  0  0  0  0  0  0  0  0  0  0  0  0
   11.6337   -4.6217   20.4713 He  0  0  0  0  0  0  0  0  0  0  0  0
    9.9218   -5.5285   19.8947 He  0  0  0  0  0  0  0  0  0  0  0  0
    5.6064   -8.7495   18.0242 He  0  0  0  0  0  0  0  0  0  0  0  0
   11.6333   -4.2858   22.0290 He  0  0  0  0  0  0  0  0  0  0  0  0
   10.8658   -4.2448   18.0319 He  0  0  0  0  0  0  0  0  0  0  0  0
    7.5128   -6.1480   16.3960 He  0  0  0  0  0  0  0  0  0  0  0  0
    4.5147   -6.9967   16.6511 He  0  0  0  0  0  0  0  0  0  0  0  0
    9.1224   -6.4199   17.1209 He  0  0  0  0  0  0  0  0  0  0  0  0
    3.7698   -8.6900   17.4481 He  0  0  0  0  0  0  0  0  0  0  0  0
   11.2587   -4.0536   18.3465 He  0  0  0  0  0  0  0  0  0  0  0  0
    8.3030   -9.0451   16.8331 He  0  0  0  0  0  0  0  0  0  0  0  0
  1  7  3  0
  1  9  4  0
  1 12  2  0
  1 13  4  0
  2  3  3  0
  2  4  2  0
  2  5  4  0
  2  6  4  0
  2 10  2  0
  2 12  2  0
  2 13  1  0
  2 15  3  0
  3  6  1  0
  3  8  3  0
  3 14  2  0
  4 10  4  0
  4 12  3  0
  4 13  3  0
  4 15  2  0
  5 12  4  0
  6  7  3  0
  6  8  2  0
  6 10  3  0
  6 13  2  0
  6 14  4  0
  6 15  1  0
  7 11  3  0
  7 15  3  0
  8 11  1  0
  8 12  1  0
  8 15  1  0
  9 10  4  0
 10 11  3  0
 10 12  1  0
 13 14  1  0
 14 15  3  0
M  END
$$$$

 Created by Python create_sdf_string function

 29 10  0  0  0  0  0  0  0  0999 V2000
    9.7825   -4.7194   17.2131 C   0  0  0  0  0  0  0  0  0  0  0  0
    7.7756   -5.5978   15.9124 F   0  0  0  0  0  0  0  0  0  0  0  0
    8.5017   -8.6008   17.3133 F   0  0  0  0  0  0  0  0  0  0  0  0
    8.5504   -8.5451   15.4059 F   0  0  0  0  0  0  0  0  0  0  0  0
    5.0573   -8.7273   17.6952 C   0  0  0  0  0  0  0  0  0  0  0  0
    7.7806   -8.6266   15.8847 F   0  0  0  0  0  0  0  0  0  0  0  0
   11.3992   -3.6328   16.1363 C   0  0  0  0  0  0  0  0  0  0  0  0
    4.9528   -8.0096   16.9310 C   0  0  0  0  0  0  0  0  0  0  0  0
   11.2935   -4.9819   20.8108 C   0  0  0  0  0  0  0  0  0  0  0  0
   10.4915   -5.3664   19.6639 C   0  0  0  0  0  0  0  0  0  0  0  0
    5.6883   -8.6403   17.9348 C   0  0  0  0  0  0  0  0  0  0  0  0
   11.2730   -4.2488   22.3178 C   0  0  0  0  0  0  0  0  0  0  0  0
    7.6517   -7.7630   18.2100 F   0  0  0  0  0  0  0  0  0  0  0  0
   11.5052   -3.6132   16.4209 C   0  0  0  0  0  0  0  0  0  0  0  0
   10.8782   -4.2606   18.0620 C   0  0  0  0  0  0  0  0  0  0  0  0
    7.5488   -8.1434   16.3372 C   0  0  0  0  0  0  0  0  0  0  0  0
    7.7842   -6.4206   16.4816 C   0  0  0  0  0  0  0  0  0  0  0  0
   10.9649   -3.8709   19.8901 C   0  0  0  0  0  0  0  0  0  0  0  0
   11.3075   -4.0940   20.9933 C   0  0  0  0  0  0  0  0  0  0  0  0
    6.0467   -6.4106   15.4249 F   0  0  0  0  0  0  0  0  0  0  0  0
    4.2991   -7.6919   16.4129 C   0  0  0  0  0  0  0  0  0  0  0  0
    8.9811   -6.1728   17.1783 C   0  0  0  0  0  0  0  0  0  0  0  0
   11.1676   -3.9667   22.5106 C   0  0  0  0  0  0  0  0  0  0  0  0
    3.9134   -8.5688   17.0849 C   0  0  0  0  0  0  0  0  0  0  0  0
    6.1694   -7.6506   16.4801 C   0  0  0  0  0  0  0  0  0  0  0  0
   10.9263   -4.2806   18.3279 C   0  0  0  0  0  0  0  0  0  0  0  0
    9.4760   -4.0888   15.9682 C   0  0  0  0  0  0  0  0  0  0  0  0
   11.7505   -3.2180   15.6942 C   0  0  0  0  0  0  0  0  0  0  0  0
    8.2522   -8.4432   16.8330 C   0  0  0  0  0  0  0  0  0  0  0  0
  1 27  4  0
  5 11  4  0
  7 14  4  0
  9 10  4  0
 12 23  4  0
 14 28  4  0
 15 26  4  0
 18 19  4  0
 19 23  1  0
 21 24  4  0
M  END
$$$$

 Created by Python create_sdf_string function

 29 86  0  0  0  0  0  0  0  0999 V2000
    9.7992   -4.1516   17.6265 C   0  0  0  0  0  0  0  0  0  0  0  0
    6.7358   -4.9358   15.9415 N   0  0  0  0  0  0  0  0  0  0  0  0
    8.9991   -7.8243   16.3604 N   0  0  0  0  0  0  0  0  0  0  0  0
    6.8584   -8.6143   15.6690 C   0  0  0  0  0  0  0  0  0  0  0  0
   12.1171   -3.2769   15.6522 B   0  0  0  0  0  0  0  0  0  0  0  0
    4.6902   -8.2252   18.0036 C   0  0  0  0  0  0  0  0  0  0  0  0
   10.2643   -3.7297   20.8494 O   0  0  0  0  0  0  0  0  0  0  0  0
    9.1935   -3.6428   20.0623 C   0  0  0  0  0  0  0  0  0  0  0  0
    8.4836   -9.4226   17.9009 C   0  0  0  0  0  0  0  0  0  0  0  0
   11.5313   -3.7447   16.2392 C   0  0  0  0  0  0  0  0  0  0  0  0
   11.4794   -4.6114   19.4637 C   0  0  0  0  0  0  0  0  0  0  0  0
    7.8351   -7.0785   15.4723 Cl  0  0  0  0  0  0  0  0  0  0  0  0
    6.3467   -6.2298   15.6685 P   0  0  0  0  0  0  0  0  0  0  0  0
   10.9651   -4.7275   19.9884 C   0  0  0  0  0  0  0  0  0  0  0  0
   11.0190   -4.3048   20.7938 Cl  0  0  0  0  0  0  0  0  0  0  0  0
    4.3701   -8.2206   17.0127 F   0  0  0  0  0  0  0  0  0  0  0  0
    9.1277   -6.5378   18.4594 O   0  0  0  0  0  0  0  0  0  0  0  0
   10.6234   -3.9160   22.3764 C   0  0  0  0  0  0  0  0  0  0  0  0
    3.5633   -7.7755   15.0438 C   0  0  0  0  0  0  0  0  0  0  0  0
   11.6665   -4.1061   18.5271 C   0  0  0  0  0  0  0  0  0  0  0  0
   11.8512   -3.3379   14.3298 F   0  0  0  0  0  0  0  0  0  0  0  0
    7.8248   -7.5713   17.7402 O   0  0  0  0  0  0  0  0  0  0  0  0
    7.8685   -6.7671   17.3844 He  0  0  0  0  0  0  0  0  0  0  0  0
    4.9758   -7.5240   17.5461 He  0  0  0  0  0  0  0  0  0  0  0  0
    4.3200   -9.6044   17.4791 He  0  0  0  0  0  0  0  0  0  0  0  0
   12.4017   -3.8054   23.3064 He  0  0  0  0  0  0  0  0  0  0  0  0
    6.0502   -6.0544   14.1459 He  0  0  0  0  0  0  0  0  0  0  0  0
    6.0730   -7.2468   15.9057 He  0  0  0  0  0  0  0  0  0  0  0  0
    9.3576   -4.4065   16.2237 He  0  0  0  0  0  0  0  0  0  0  0  0
  1  7  3  0
  1 11  4  0
  1 12  4  0
  1 13  1  0
  1 15  2  0
  1 16  4  0
  1 18  1  0
  1 20  4  0
  2  9  3  0
  2 10  2  0
  2 20  3  0
  2 21  1  0
  2 22  3  0
  3  5  4  0
  3  9  4  0
  3 10  4  0
  3 12  3  0
  3 14  4  0
  3 17  1  0
  3 18  4  0
  3 20  1  0
  3 22  3  0
  4  9  4  0
  4 11  4  0
  4 12  1  0
  4 18  3  0
  5  6  2  0
  5  7  4  0
  5  8  1  0
  5  9  2  0
  5 13  1  0
  5 15  2  0
  5 21  1  0
  6  7  2  0
  6 10  3  0
  6 11  4  0
  6 13  1  0
  6 14  1  0
  6 19  3  0
  6 21  3  0
  6 22  1  0
  7  8  2  0
  7  9  1  0
  7 10  2  0
  7 11  2  0
  7 12  4  0
  7 18  3  0
  7 22  1  0
  8  9  1  0
  8 12  2  0
  8 13  3  0
  8 14  1  0
  8 15  2  0
  9 10  2  0
  9 11  2  0
  9 13  3  0
  9 14  4  0
  9 15  4  0
  9 16  4  0
  9 21  2  0
  9 22  1  0
 10 12  4  0
 10 17  3  0
 10 22  1  0
 11 15  4  0
 11 17  3  0
 11 20  1  0
 11 21  1  0
 11 22  4  0
 12 14  2  0
 12 15  2  0
 12 20  2  0
 13 14  2  0
 13 15  1  0
 13 16  1  0
 13 21  1  0
 14 18  2  0
 14 22  3  0
 15 18  4  0
 15 19  2  0
 15 22  1  0
 16 19  3  0
 17 21  4  0
 19 20  3  0
 19 22  2  0
 20 22  2  0
M  END
$$$$

 Created by Python create_sdf_string function

 29 10  0  0  0  0  0  0  0  0999 V2000
   10.3420   -4.4648   17.5322 C   0  0  0  0  0  0  0  0  0  0  0  0
    7.6009   -5.6773   15.7800 C   0  0  0  0  0  0  0  0  0  0  0  0
    8.5127   -6.4818   17.2957 C   0  0  0  0  0  0  0  0  0  0  0  0
    8.7541   -7.5523   16.7401 F   0  0  0  0  0  0  0  0  0  0  0  0
    5.4320   -7.9176   17.2518 C   0  0  0  0  0  0  0  0  0  0  0  0
    7.2269   -8.4916   15.8601 C   0  0  0  0  0  0  0  0  0  0  0  0
   11.8619   -3.5006   15.9616 C   0  0  0  0  0  0  0  0  0  0  0  0
    5.4822   -8.5700   17.6961 C   0  0  0  0  0  0  0  0  0  0  0  0
   10.4285   -3.8389   21.3203 C   0  0  0  0  0  0  0  0  0  0  0  0
   10.0100   -4.5057   19.7529 C   0  0  0  0  0  0  0  0  0  0  0  0
    4.4034   -9.1288   17.5075 C   0  0  0  0  0  0  0  0  0  0  0  0
   11.6263   -3.8329   22.9240 C   0  0  0  0  0  0  0  0  0  0  0  0
    8.2336   -8.5206   17.5006 C   0  0  0  0  0  0  0  0  0  0  0  0
   11.4846   -3.7407   16.2656 C   0  0  0  0  0  0  0  0  0  0  0  0
   10.9975   -4.4726   19.2735 C   0  0  0  0  0  0  0  0  0  0  0  0
    8.0139   -7.7329   15.4379 F   0  0  0  0  0  0  0  0  0  0  0  0
    6.3758   -6.9654   15.8441 C   0  0  0  0  0  0  0  0  0  0  0  0
   10.8331   -4.6801   20.1121 C   0  0  0  0  0  0  0  0  0  0  0  0
   11.4714   -4.4031   21.0677 C   0  0  0  0  0  0  0  0  0  0  0  0
    6.3575   -6.5066   14.9554 F   0  0  0  0  0  0  0  0  0  0  0  0
    4.4655   -8.5307   16.8739 C   0  0  0  0  0  0  0  0  0  0  0  0
    9.3328   -6.5583   18.1606 C   0  0  0  0  0  0  0  0  0  0  0  0
   11.1059   -3.9839   22.2063 C   0  0  0  0  0  0  0  0  0  0  0  0
    4.1051   -8.0655   15.9363 C   0  0  0  0  0  0  0  0  0  0  0  0
    6.0349   -7.6116   16.1581 C   0  0  0  0  0  0  0  0  0  0  0  0
   11.1702   -4.1198   18.0797 C   0  0  0  0  0  0  0  0  0  0  0  0
    9.7658   -4.3844   16.3208 C   0  0  0  0  0  0  0  0  0  0  0  0
   11.6747   -3.5282   15.1853 C   0  0  0  0  0  0  0  0  0  0  0  0
    7.7579   -7.8581   17.8055 C   0  0  0  0  0  0  0  0  0  0  0  0
  1 26  4  0
  1 27  4  0
  6 16  1  0
  7 14  4  0
  7 28  4  0
 11 21  1  0
 12 23  1  0
 13 29  1  0
 17 20  1  0
 19 23  4  0
M  END
$$$$

 Created by Python create_sdf_string function

 29 32  0  0  0  0  0  0  0  0999 V2000
    7.5622   -9.0298   18.3962 Cl  0  0  0  0  0  0  0  0  0  0  0  0
    7.5812   -9.2990   14.4756 F   0  0  0  0  0  0  0  0  0  0  0  0
   10.3464   -2.0987   21.1129 S   0  0  0  0  0  0  0  0  0  0  0  0
   10.3541   -4.8828   24.1819 O   0  0  0  0  0  0  0  0  0  0  0  0
   12.7088   -5.5365   19.0906 N   0  0  0  0  0  0  0  0  0  0  0  0
    7.0162   -7.5679   16.0637 O   0  0  0  0  0  0  0  0  0  0  0  0
   10.5991   -4.4218   19.9198 C   0  0  0  0  0  0  0  0  0  0  0  0
   11.6090   -4.4462   21.5359 Cl  0  0  0  0  0  0  0  0  0  0  0  0
    5.6657   -8.1546   13.4578 P   0  0  0  0  0  0  0  0  0  0  0  0
    4.1656   -7.4302   17.2643 P   0  0  0  0  0  0  0  0  0  0  0  0
    9.8724   -7.0909   20.1738 Br  0  0  0  0  0  0  0  0  0  0  0  0
   11.4355   -3.7145   22.6703 C   0  0  0  0  0  0  0  0  0  0  0  0
    3.8886   -9.5864   15.1325 C   0  0  0  0  0  0  0  0  0  0  0  0
    5.4388   -7.6574   17.1949 C   0  0  0  0  0  0  0  0  0  0  0  0
   11.1425   -4.0926   17.9756 O   0  0  0  0  0  0  0  0  0  0  0  0
   10.7271   -5.1344   17.5132 He  0  0  0  0  0  0  0  0  0  0  0  0
    9.1966   -5.2280   15.6817 He  0  0  0  0  0  0  0  0  0  0  0  0
    8.4586   -6.0888   16.5183 He  0  0  0  0  0  0  0  0  0  0  0  0
    6.2839   -6.4453   17.3474 He  0  0  0  0  0  0  0  0  0  0  0  0
   10.7820   -4.1417   16.5621 He  0  0  0  0  0  0  0  0  0  0  0  0
    7.7945   -8.1463   17.6434 He  0  0  0  0  0  0  0  0  0  0  0  0
   12.1931   -6.1509   18.8677 He  0  0  0  0  0  0  0  0  0  0  0  0
    4.8559  -10.4781   19.6811 He  0  0  0  0  0  0  0  0  0  0  0  0
    9.1971   -8.2186   17.6765 He  0  0  0  0  0  0  0  0  0  0  0  0
   11.7525   -3.8990   16.5910 He  0  0  0  0  0  0  0  0  0  0  0  0
    8.5742   -6.3687   16.6658 He  0  0  0  0  0  0  0  0  0  0  0  0
    9.7511   -4.1682   16.4736 He  0  0  0  0  0  0  0  0  0  0  0  0
   12.3550   -4.7798   13.9928 He  0  0  0  0  0  0  0  0  0  0  0  0
    9.3797   -8.5599   16.4067 He  0  0  0  0  0  0  0  0  0  0  0  0
  1  2  2  0
  1  7  1  0
  1 11  1  0
  2  8  3  0
  2  9  2  0
  2 11  3  0
  2 15  2  0
  3  6  2  0
  3  7  3  0
  3 10  2  0
  3 11  1  0
  3 14  2  0
  4  7  3  0
  4  8  4  0
  4 11  1  0
  4 13  2  0
  4 14  4  0
  5  7  4  0
  5 11  2  0
  6  8  1  0
  6  9  4  0
  6 12  4  0
  6 14  1  0
  7 10  4  0
  8 12  4  0
  9 10  4  0
  9 11  1  0
 10 13  1  0
 11 12  4  0
 11 13  4  0
 11 15  1  0
 12 14  3  0
M  END
$$$$

 Created by Python create_sdf_string function

 29 15  0  0  0  0  0  0  0  0999 V2000
   10.6099   -4.6164   17.6291 C   0  0  0  0  0  0  0  0  0  0  0  0
    9.2606   -4.9248   16.1475 C   0  0  0  0  0  0  0  0  0  0  0  0
    8.6556   -6.0055   16.6914 C   0  0  0  0  0  0  0  0  0  0  0  0
    7.0394   -8.3701   18.0845 C   0  0  0  0  0  0  0  0  0  0  0  0
    6.4934   -6.9340   17.3457 C   0  0  0  0  0  0  0  0  0  0  0  0
    7.5216   -8.6473   15.3383 C   0  0  0  0  0  0  0  0  0  0  0  0
   11.1214   -3.9252   16.7505 C   0  0  0  0  0  0  0  0  0  0  0  0
    7.4147   -7.9840   17.7051 C   0  0  0  0  0  0  0  0  0  0  0  0
   10.9004   -3.3545   21.2155 C   0  0  0  0  0  0  0  0  0  0  0  0
   11.4942   -5.5252   19.2110 C   0  0  0  0  0  0  0  0  0  0  0  0
    5.5223   -9.0492   18.5617 O   0  0  0  0  0  0  0  0  0  0  0  0
   11.0142   -4.2459   23.1637 O   0  0  0  0  0  0  0  0  0  0  0  0
    8.9233   -8.0412   17.6441 C   0  0  0  0  0  0  0  0  0  0  0  0
   11.6468   -3.6720   16.3103 C   0  0  0  0  0  0  0  0  0  0  0  0
   11.8369   -5.3890   19.5902 C   0  0  0  0  0  0  0  0  0  0  0  0
    8.5317   -6.3777   17.0173 C   0  0  0  0  0  0  0  0  0  0  0  0
    6.6743   -7.5118   16.1326 C   0  0  0  0  0  0  0  0  0  0  0  0
   10.9725   -4.2862   20.0358 C   0  0  0  0  0  0  0  0  0  0  0  0
   11.4239   -4.7840   21.7124 C   0  0  0  0  0  0  0  0  0  0  0  0
    5.8065   -8.3418   15.1849 C   0  0  0  0  0  0  0  0  0  0  0  0
    4.5056   -8.2179   16.8598 C   0  0  0  0  0  0  0  0  0  0  0  0
   10.2138   -6.5229   19.3746 C   0  0  0  0  0  0  0  0  0  0  0  0
   11.2449   -4.3980   22.3214 C   0  0  0  0  0  0  0  0  0  0  0  0
    4.3254   -8.7078   15.8874 C   0  0  0  0  0  0  0  0  0  0  0  0
    5.8694   -7.8249   17.0387 C   0  0  0  0  0  0  0  0  0  0  0  0
   10.9849   -4.1020   18.3967 C   0  0  0  0  0  0  0  0  0  0  0  0
    9.9026   -4.1687   16.3822 C   0  0  0  0  0  0  0  0  0  0  0  0
   11.7385   -3.6034   15.0644 C   0  0  0  0  0  0  0  0  0  0  0  0
    8.6470   -8.2115   16.3976 C   0  0  0  0  0  0  0  0  0  0  0  0
  3 16  1  0
  4  8  1  0
  4 11  1  0
  6 29  1  0
  7 14  4  0
  9 18  4  0
 10 15  4  0
 12 23  1  0
 13 29  1  0
 14 28  4  0
 17 25  1  0
 19 23  4  0
 20 24  1  0
 21 24  1  0
 21 25  1  0
M  END
$$$$

 Created by Python create_sdf_string function

 29 94  0  0  0  0  0  0  0  0999 V2000
   10.6705   -6.5429   17.6330 O   0  0  0  0  0  0  0  0  0  0  0  0
    9.3227   -6.3413   16.5602 I   0  0  0  0  0  0  0  0  0  0  0  0
    6.8799   -9.0929   19.0461 C   0  0  0  0  0  0  0  0  0  0  0  0
    7.4654   -9.0316   17.0920 P   0  0  0  0  0  0  0  0  0  0  0  0
   11.6524   -3.6801   15.8150 S   0  0  0  0  0  0  0  0  0  0  0  0
    9.8478   -8.0385   17.5402 O   0  0  0  0  0  0  0  0  0  0  0  0
   10.6679   -4.3341   20.9689 N   0  0  0  0  0  0  0  0  0  0  0  0
   11.2175   -6.3251   19.6493 C   0  0  0  0  0  0  0  0  0  0  0  0
    4.6300   -8.7138   19.3964 Cl  0  0  0  0  0  0  0  0  0  0  0  0
   11.9125   -3.9154   23.8801 C   0  0  0  0  0  0  0  0  0  0  0  0
    6.6343   -6.9601   18.0646 O   0  0  0  0  0  0  0  0  0  0  0  0
   12.0367   -4.3687   16.6913 C   0  0  0  0  0  0  0  0  0  0  0  0
   12.0383   -5.7226   19.5582 C   0  0  0  0  0  0  0  0  0  0  0  0
    8.8779   -7.8841   16.3056 C   0  0  0  0  0  0  0  0  0  0  0  0
   11.4042   -3.7369   19.9168 C   0  0  0  0  0  0  0  0  0  0  0  0
   12.0524   -5.1632   21.1718 C   0  0  0  0  0  0  0  0  0  0  0  0
    7.8338   -9.0471   14.6929 O   0  0  0  0  0  0  0  0  0  0  0  0
    5.2253   -7.4916   14.0231 S   0  0  0  0  0  0  0  0  0  0  0  0
   10.5973   -4.4069   22.3938 C   0  0  0  0  0  0  0  0  0  0  0  0
   10.6540   -3.6992   18.5663 C   0  0  0  0  0  0  0  0  0  0  0  0
    9.3858   -4.0848   15.8045 C   0  0  0  0  0  0  0  0  0  0  0  0
   13.2542   -3.8754   14.7912 C   0  0  0  0  0  0  0  0  0  0  0  0
    7.9498   -8.5319   17.3289 C   0  0  0  0  0  0  0  0  0  0  0  0
    7.6931   -5.7913   16.0948 He  0  0  0  0  0  0  0  0  0  0  0  0
    7.0573   -6.3255   15.8897 He  0  0  0  0  0  0  0  0  0  0  0  0
    9.4558   -5.2672   18.0321 He  0  0  0  0  0  0  0  0  0  0  0  0
   11.3917   -5.9628   19.0314 He  0  0  0  0  0  0  0  0  0  0  0  0
    5.7622   -9.6013   17.7850 He  0  0  0  0  0  0  0  0  0  0  0  0
    7.7551   -8.4945   15.6992 He  0  0  0  0  0  0  0  0  0  0  0  0
  1  5  3  0
  1  7  1  0
  1 12  2  0
  1 14  4  0
  1 16  3  0
  1 19  1  0
  1 20  1  0
  1 21  3  0
  1 22  3  0
  1 23  4  0
  2  7  4  0
  2  8  1  0
  2 13  2  0
  2 17  2  0
  2 19  3  0
  3  4  1  0
  3  5  3  0
  3  6  4  0
  3  8  3  0
  3  9  4  0
  3 11  1  0
  3 16  2  0
  3 18  3  0
  3 21  4  0
  4  7  4  0
  4 10  3  0
  4 14  2  0
  4 21  1  0
  5  6  1  0
  5 10  3  0
  5 11  4  0
  5 14  3  0
  5 15  4  0
  5 17  4  0
  5 20  2  0
  5 21  2  0
  6 10  2  0
  6 11  4  0
  6 13  1  0
  6 14  2  0
  6 15  4  0
  6 17  3  0
  6 22  1  0
  7  8  4  0
  7 10  4  0
  7 13  4  0
  7 14  1  0
  7 20  1  0
  8  9  2  0
  8 10  2  0
  8 12  4  0
  8 18  2  0
  8 20  2  0
  8 21  1  0
  8 23  4  0
  9 10  4  0
  9 12  3  0
  9 13  2  0
  9 14  2  0
  9 15  3  0
  9 18  1  0
  9 20  3  0
 10 11  4  0
 10 13  3  0
 10 17  3  0
 10 18  2  0
 10 19  4  0
 10 20  4  0
 10 21  3  0
 10 23  3  0
 11 19  1  0
 11 20  1  0
 12 13  4  0
 12 14  1  0
 12 18  2  0
 12 21  4  0
 13 17  4  0
 13 23  4  0
 14 16  2  0
 14 18  3  0
 14 19  2  0
 14 20  4  0
 14 22  1  0
 14 23  3  0
 16 17  3  0
 16 18  4  0
 16 19  4  0
 17 18  4  0
 17 20  2  0
 17 23  1  0
 18 21  4  0
 19 23  4  0
 21 22  1  0
 21 23  4  0
M  END
$$$$

 Created by Python create_sdf_string function

 29  8  0  0  0  0  0  0  0  0999 V2000
   10.3656   -6.0550   17.9578 C   0  0  0  0  0  0  0  0  0  0  0  0
    9.2318   -5.6621   16.8181 C   0  0  0  0  0  0  0  0  0  0  0  0
    7.8409   -6.1830   16.1516 C   0  0  0  0  0  0  0  0  0  0  0  0
    6.5809   -8.3297   18.2482 C   0  0  0  0  0  0  0  0  0  0  0  0
    7.1082   -6.6626   15.9171 C   0  0  0  0  0  0  0  0  0  0  0  0
    7.2334   -8.6481   17.2604 C   0  0  0  0  0  0  0  0  0  0  0  0
   11.4201   -3.6462   16.0507 C   0  0  0  0  0  0  0  0  0  0  0  0
    9.2920   -7.8245   17.9657 C   0  0  0  0  0  0  0  0  0  0  0  0
   10.8255   -4.0690   20.8573 C   0  0  0  0  0  0  0  0  0  0  0  0
   10.8300   -5.5274   19.4752 C   0  0  0  0  0  0  0  0  0  0  0  0
    5.7036   -8.6072   18.5304 O   0  0  0  0  0  0  0  0  0  0  0  0
   11.4285   -3.9849   23.1020 C   0  0  0  0  0  0  0  0  0  0  0  0
    6.7446   -7.0392   18.2184 F   0  0  0  0  0  0  0  0  0  0  0  0
   11.6189   -4.0031   16.4970 C   0  0  0  0  0  0  0  0  0  0  0  0
   11.8051   -5.3344   20.0290 C   0  0  0  0  0  0  0  0  0  0  0  0
    9.6952   -5.3757   17.8745 C   0  0  0  0  0  0  0  0  0  0  0  0
    8.5261   -7.6433   16.6491 C   0  0  0  0  0  0  0  0  0  0  0  0
   10.9762   -4.1043   20.3637 C   0  0  0  0  0  0  0  0  0  0  0  0
   12.0905   -4.9451   21.6788 C   0  0  0  0  0  0  0  0  0  0  0  0
    7.8445   -8.8705   15.1981 O   0  0  0  0  0  0  0  0  0  0  0  0
    6.0227   -7.6497   15.4127 C   0  0  0  0  0  0  0  0  0  0  0  0
   11.0034   -5.4835   19.1687 C   0  0  0  0  0  0  0  0  0  0  0  0
   11.4184   -4.2992   22.3685 C   0  0  0  0  0  0  0  0  0  0  0  0
    5.6761   -8.9560   17.4392 C   0  0  0  0  0  0  0  0  0  0  0  0
    7.6012   -8.2832   15.8778 C   0  0  0  0  0  0  0  0  0  0  0  0
   10.9004   -4.0271   18.2593 C   0  0  0  0  0  0  0  0  0  0  0  0
    9.8766   -3.9405   16.0128 C   0  0  0  0  0  0  0  0  0  0  0  0
   12.2684   -3.4841   15.5829 C   0  0  0  0  0  0  0  0  0  0  0  0
    7.9332   -8.2373   17.2405 C   0  0  0  0  0  0  0  0  0  0  0  0
  4  6  1  0
  4 11  1  0
  4 13  1  0
  9 18  4  0
 12 23  4  0
 15 19  4  0
 19 23  4  0
 20 25  1  0
M  END
$$$$

 Created by Python create_sdf_string function

 29 55  0  0  0  0  0  0  0  0999 V2000
    8.4846   -6.3461   16.4541 N   0  0  0  0  0  0  0  0  0  0  0  0
    7.4966   -5.5554   15.2994 N   0  0  0  0  0  0  0  0  0  0  0  0
    7.5776   -7.6533   15.9519 C   0  0  0  0  0  0  0  0  0  0  0  0
   11.4316   -6.1629   19.8243 F   0  0  0  0  0  0  0  0  0  0  0  0
   12.0589   -4.3470   16.5023 O   0  0  0  0  0  0  0  0  0  0  0  0
    8.8479   -5.9888   17.8800 Br  0  0  0  0  0  0  0  0  0  0  0  0
    8.0980   -5.7191   16.3969 C   0  0  0  0  0  0  0  0  0  0  0  0
   11.0934   -4.3711   20.4001 C   0  0  0  0  0  0  0  0  0  0  0  0
   12.1634   -5.4708   21.3617 C   0  0  0  0  0  0  0  0  0  0  0  0
    7.5075   -8.7917   13.8935 O   0  0  0  0  0  0  0  0  0  0  0  0
    6.5730   -6.9357   14.0146 O   0  0  0  0  0  0  0  0  0  0  0  0
   11.6540   -3.7109   22.4248 C   0  0  0  0  0  0  0  0  0  0  0  0
    5.5189   -8.2848   18.3059 F   0  0  0  0  0  0  0  0  0  0  0  0
    9.7015   -7.2977   16.4363 C   0  0  0  0  0  0  0  0  0  0  0  0
   10.8366   -4.2722   18.2849 C   0  0  0  0  0  0  0  0  0  0  0  0
    9.6558   -4.3931   16.1877 C   0  0  0  0  0  0  0  0  0  0  0  0
   11.4138   -3.3413   15.3077 O   0  0  0  0  0  0  0  0  0  0  0  0
    7.0442   -8.8332   17.1440 P   0  0  0  0  0  0  0  0  0  0  0  0
   10.0414   -6.0207   18.2121 He  0  0  0  0  0  0  0  0  0  0  0  0
    8.1842   -8.7725   18.8541 He  0  0  0  0  0  0  0  0  0  0  0  0
    8.9356  -10.3388   17.6499 He  0  0  0  0  0  0  0  0  0  0  0  0
   12.5964   -3.5343   16.3249 He  0  0  0  0  0  0  0  0  0  0  0  0
   10.9783   -7.8883   17.9705 He  0  0  0  0  0  0  0  0  0  0  0  0
   10.6847   -4.1733   20.6587 He  0  0  0  0  0  0  0  0  0  0  0  0
    6.8275   -8.3350   18.5777 He  0  0  0  0  0  0  0  0  0  0  0  0
   10.7454   -3.3541   22.8539 He  0  0  0  0  0  0  0  0  0  0  0  0
    6.9780   -5.2545   17.7557 He  0  0  0  0  0  0  0  0  0  0  0  0
   12.2334   -5.1746   20.1645 He  0  0  0  0  0  0  0  0  0  0  0  0
    9.9902   -5.6209   18.3984 He  0  0  0  0  0  0  0  0  0  0  0  0
  1  5  3  0
  1  6  1  0
  1  8  4  0
  1 10  4  0
  1 11  1  0
  1 14  1  0
  1 16  2  0
  1 18  1  0
  2  3  3  0
  2  5  1  0
  2  7  2  0
  2 11  2  0
  2 13  1  0
  2 15  1  0
  2 16  4  0
  2 17  3  0
  2 18  2  0
  3  4  4  0
  3  6  4  0
  3  8  2  0
  3 10  2  0
  3 11  1  0
  3 16  3  0
  3 18  3  0
  4  5  3  0
  4  7  1  0
  4 10  3  0
  4 12  1  0
  5 10  3  0
  5 13  2  0
  6  9  4  0
  6 11  4  0
  6 13  3  0
  6 15  3  0
  7 12  3  0
  7 15  3  0
  7 18  3  0
  8 11  1  0
  9 11  1  0
  9 12  4  0
  9 18  2  0
 10 11  1  0
 10 12  1  0
 10 13  2  0
 10 16  2  0
 10 18  4  0
 11 18  3  0
 12 13  4  0
 12 14  4  0
 13 16  4  0
 13 18  1  0
 14 16  3  0
 14 17  1  0
 15 17  3  0
 16 17  4  0
M  END
$$$$

 Created by Python create_sdf_string function

 29 13  0  0  0  0  0  0  0  0999 V2000
   10.2078   -5.6258   18.3718 C   0  0  0  0  0  0  0  0  0  0  0  0
    8.5915   -6.3437   16.7509 C   0  0  0  0  0  0  0  0  0  0  0  0
    7.5797   -5.6002   15.6231 F   0  0  0  0  0  0  0  0  0  0  0  0
    8.4867   -8.0671   18.4610 F   0  0  0  0  0  0  0  0  0  0  0  0
    7.3617   -7.7814   16.0791 C   0  0  0  0  0  0  0  0  0  0  0  0
    8.4050   -9.0596   17.5137 F   0  0  0  0  0  0  0  0  0  0  0  0
   11.7252   -3.5994   16.5020 C   0  0  0  0  0  0  0  0  0  0  0  0
   10.1372   -7.4902   18.4232 F   0  0  0  0  0  0  0  0  0  0  0  0
   10.5466   -4.0486   20.8255 C   0  0  0  0  0  0  0  0  0  0  0  0
   11.2983   -5.5149   19.9258 C   0  0  0  0  0  0  0  0  0  0  0  0
    7.1493   -8.1443   18.3023 F   0  0  0  0  0  0  0  0  0  0  0  0
   11.0420   -3.5297   22.6770 C   0  0  0  0  0  0  0  0  0  0  0  0
    7.4466   -6.0084   17.8869 F   0  0  0  0  0  0  0  0  0  0  0  0
   11.9169   -3.8607   16.5085 C   0  0  0  0  0  0  0  0  0  0  0  0
   12.0346   -5.1800   20.4146 C   0  0  0  0  0  0  0  0  0  0  0  0
    8.8750   -6.4117   17.8351 C   0  0  0  0  0  0  0  0  0  0  0  0
    8.3255   -5.8317   16.3492 C   0  0  0  0  0  0  0  0  0  0  0  0
   10.9755   -4.4833   20.4244 C   0  0  0  0  0  0  0  0  0  0  0  0
   12.3254   -4.9248   21.7899 C   0  0  0  0  0  0  0  0  0  0  0  0
    7.8515   -8.6675   15.1595 F   0  0  0  0  0  0  0  0  0  0  0  0
    6.7109   -7.1600   15.1701 F   0  0  0  0  0  0  0  0  0  0  0  0
   10.2674   -5.3377   18.3672 C   0  0  0  0  0  0  0  0  0  0  0  0
   11.6642   -4.1752   22.3625 C   0  0  0  0  0  0  0  0  0  0  0  0
    6.0138   -8.1553   17.6310 F   0  0  0  0  0  0  0  0  0  0  0  0
    8.9888   -7.1839   16.7469 C   0  0  0  0  0  0  0  0  0  0  0  0
   11.1857   -4.0671   17.9152 C   0  0  0  0  0  0  0  0  0  0  0  0
    9.7790   -4.1871   16.1705 C   0  0  0  0  0  0  0  0  0  0  0  0
   11.3709   -3.6023   15.6367 C   0  0  0  0  0  0  0  0  0  0  0  0
    6.8520   -8.3378   17.0877 C   0  0  0  0  0  0  0  0  0  0  0  0
  2 25  1  0
  5 20  1  0
  5 21  1  0
  7 14  4  0
  7 26  4  0
  7 28  4  0
  9 18  4  0
 11 29  1  0
 12 23  4  0
 15 19  4  0
 19 23  4  0
 24 29  1  0
 27 28  4  0
M  END
$$$$

 Created by Python create_sdf_string function

 29 54  0  0  0  0  0  0  0  0999 V2000
    8.6680   -3.7584   19.8099 C   0  0  0  0  0  0  0  0  0  0  0  0
   10.1283   -6.7726   16.1602 B   0  0  0  0  0  0  0  0  0  0  0  0
    8.5045   -7.4955   17.8595 S   0  0  0  0  0  0  0  0  0  0  0  0
    9.0524   -8.9223   17.9942 F   0  0  0  0  0  0  0  0  0  0  0  0
   10.2988   -7.4739   20.2794 F   0  0  0  0  0  0  0  0  0  0  0  0
   11.0651   -5.6795   19.1943 O   0  0  0  0  0  0  0  0  0  0  0  0
    7.7429   -8.1945   17.3653 F   0  0  0  0  0  0  0  0  0  0  0  0
    6.2983   -5.7825   18.2598 C   0  0  0  0  0  0  0  0  0  0  0  0
   11.6284   -3.7522   16.8880 C   0  0  0  0  0  0  0  0  0  0  0  0
   10.9883   -6.2347   21.4988 C   0  0  0  0  0  0  0  0  0  0  0  0
   10.2948   -6.8855   18.0085 P   0  0  0  0  0  0  0  0  0  0  0  0
    9.3979   -6.4887   16.2944 S   0  0  0  0  0  0  0  0  0  0  0  0
   10.6504   -4.6634   20.7501 C   0  0  0  0  0  0  0  0  0  0  0  0
   12.8587   -5.1357   21.2415 C   0  0  0  0  0  0  0  0  0  0  0  0
    6.7812   -9.8602   13.1746 C   0  0  0  0  0  0  0  0  0  0  0  0
   11.7329   -4.6397   22.5971 C   0  0  0  0  0  0  0  0  0  0  0  0
    8.0313   -7.9475   16.9216 F   0  0  0  0  0  0  0  0  0  0  0  0
   10.7919   -3.8225   18.1873 C   0  0  0  0  0  0  0  0  0  0  0  0
   10.0953   -3.7952   16.1109 C   0  0  0  0  0  0  0  0  0  0  0  0
    4.8685   -4.7299   14.9907 He  0  0  0  0  0  0  0  0  0  0  0  0
    5.5283   -6.8093   16.7576 He  0  0  0  0  0  0  0  0  0  0  0  0
   12.1505   -2.6408   17.2080 He  0  0  0  0  0  0  0  0  0  0  0  0
   10.0591   -5.6042   20.5286 He  0  0  0  0  0  0  0  0  0  0  0  0
    9.7810   -2.7758   21.7759 He  0  0  0  0  0  0  0  0  0  0  0  0
    7.2084   -6.1253   15.0081 He  0  0  0  0  0  0  0  0  0  0  0  0
   11.1229   -4.7588   17.4819 He  0  0  0  0  0  0  0  0  0  0  0  0
    6.6844   -7.3881   15.2466 He  0  0  0  0  0  0  0  0  0  0  0  0
   11.6679   -5.1050   15.7925 He  0  0  0  0  0  0  0  0  0  0  0  0
    6.0998   -8.3416   16.4339 He  0  0  0  0  0  0  0  0  0  0  0  0
  1  5  2  0
  1  6  2  0
  1  7  1  0
  1  8  4  0
  1 16  1  0
  1 17  4  0
  2  6  4  0
  2  7  2  0
  2 12  4  0
  2 15  2  0
  2 18  2  0
  3  4  1  0
  3 11  2  0
  3 12  3  0
  3 17  2  0
  3 19  1  0
  4  7  3  0
  4  9  2  0
  4 13  2  0
  4 15  4  0
  4 19  3  0
  5  6  1  0
  5  7  3  0
  5  8  3  0
  5 16  3  0
  6  9  3  0
  6 15  3  0
  6 17  1  0
  7  8  4  0
  7  9  3  0
  7 10  2  0
  7 12  3  0
  7 16  1  0
  7 18  2  0
  8  9  2  0
  8 10  2  0
  8 12  2  0
  8 15  3  0
  8 18  1  0
  8 19  1  0
  9 11  1  0
  9 15  2  0
  9 17  1  0
 10 19  1  0
 11 12  4  0
 11 16  2  0
 11 17  3  0
 11 19  3  0
 12 16  3  0
 12 18  2  0
 12 19  3  0
 15 19  3  0
 16 17  3  0
 16 18  2  0
M  END
$$$$

 Created by Python create_sdf_string function

 29 12  0  0  0  0  0  0  0  0999 V2000
    9.7502   -4.1922   19.9945 C   0  0  0  0  0  0  0  0  0  0  0  0
    9.4106   -6.3447   16.6982 C   0  0  0  0  0  0  0  0  0  0  0  0
    5.7301   -6.6647   15.3057 F   0  0  0  0  0  0  0  0  0  0  0  0
    8.7045   -7.5874   17.9164 C   0  0  0  0  0  0  0  0  0  0  0  0
    5.8858   -7.2586   16.9217 C   0  0  0  0  0  0  0  0  0  0  0  0
    8.8540   -8.3780   17.7517 F   0  0  0  0  0  0  0  0  0  0  0  0
   11.7651   -2.8287   16.9580 C   0  0  0  0  0  0  0  0  0  0  0  0
   10.2201   -7.0147   19.5343 F   0  0  0  0  0  0  0  0  0  0  0  0
   10.5367   -4.7351   20.4261 C   0  0  0  0  0  0  0  0  0  0  0  0
   10.6831   -5.7130   19.1412 C   0  0  0  0  0  0  0  0  0  0  0  0
    7.6646   -8.1387   17.2536 F   0  0  0  0  0  0  0  0  0  0  0  0
   10.5766   -3.4022   22.1468 C   0  0  0  0  0  0  0  0  0  0  0  0
    6.7958   -6.8586   17.9469 F   0  0  0  0  0  0  0  0  0  0  0  0
   11.4908   -3.6412   16.7795 C   0  0  0  0  0  0  0  0  0  0  0  0
   11.2939   -5.4090   21.2203 C   0  0  0  0  0  0  0  0  0  0  0  0
    9.9440   -6.7086   18.1667 C   0  0  0  0  0  0  0  0  0  0  0  0
    9.2237   -6.0559   16.6381 C   0  0  0  0  0  0  0  0  0  0  0  0
   10.8949   -4.5011   20.9297 C   0  0  0  0  0  0  0  0  0  0  0  0
   12.2975   -4.9498   21.6947 C   0  0  0  0  0  0  0  0  0  0  0  0
    7.1139   -8.9979   15.1071 F   0  0  0  0  0  0  0  0  0  0  0  0
    7.2194   -6.4755   15.5316 F   0  0  0  0  0  0  0  0  0  0  0  0
   10.6390   -4.7830   17.4174 C   0  0  0  0  0  0  0  0  0  0  0  0
   11.7954   -4.3211   22.5967 C   0  0  0  0  0  0  0  0  0  0  0  0
    8.0809   -7.9564   16.7434 F   0  0  0  0  0  0  0  0  0  0  0  0
    6.8051   -7.6848   15.6191 C   0  0  0  0  0  0  0  0  0  0  0  0
   10.9158   -3.8998   18.1726 C   0  0  0  0  0  0  0  0  0  0  0  0
    9.9572   -4.0679   15.8831 C   0  0  0  0  0  0  0  0  0  0  0  0
   11.0431   -4.0678   15.9408 C   0  0  0  0  0  0  0  0  0  0  0  0
    6.0647   -8.2319   16.5903 F   0  0  0  0  0  0  0  0  0  0  0  0
  1  9  4  0
  2 17  4  0
  3 25  1  0
  4  6  1  0
  5 13  1  0
  5 29  1  0
  7 14  4  0
 12 23  4  0
 14 28  4  0
 19 23  4  0
 20 25  1  0
 27 28  4  0
M  END
$$$$

 Created by Python create_sdf_string function

 29 51  0  0  0  0  0  0  0  0999 V2000
    5.6256   -5.8898   15.8915 O   0  0  0  0  0  0  0  0  0  0  0  0
    8.2757   -7.7151   17.0935 N   0  0  0  0  0  0  0  0  0  0  0  0
    7.0541   -6.5084   18.6020 Cl  0  0  0  0  0  0  0  0  0  0  0  0
   11.1750   -7.5751   17.6135 F   0  0  0  0  0  0  0  0  0  0  0  0
   12.0492   -3.2511   16.0859 C   0  0  0  0  0  0  0  0  0  0  0  0
   10.8211   -5.7076   19.3929 N   0  0  0  0  0  0  0  0  0  0  0  0
    8.4587   -8.7687   17.3017 P   0  0  0  0  0  0  0  0  0  0  0  0
   11.5336   -3.9669   16.9042 C   0  0  0  0  0  0  0  0  0  0  0  0
    9.7061   -5.4747   17.4105 Se  0  0  0  0  0  0  0  0  0  0  0  0
   10.9766   -4.8338   20.6160 C   0  0  0  0  0  0  0  0  0  0  0  0
   12.1291   -4.5445   21.6759 C   0  0  0  0  0  0  0  0  0  0  0  0
    7.1468  -10.8082   15.9410 C   0  0  0  0  0  0  0  0  0  0  0  0
    6.7449   -7.2952   16.0764 Br  0  0  0  0  0  0  0  0  0  0  0  0
   11.5388   -3.9169   22.7484 C   0  0  0  0  0  0  0  0  0  0  0  0
    8.5572   -7.3735   16.9024 C   0  0  0  0  0  0  0  0  0  0  0  0
    9.6243   -2.9454   16.1939 C   0  0  0  0  0  0  0  0  0  0  0  0
    5.9593   -8.6257   17.0437 F   0  0  0  0  0  0  0  0  0  0  0  0
    9.6106   -3.2907   20.3859 He  0  0  0  0  0  0  0  0  0  0  0  0
    8.8912   -4.9250   16.7118 He  0  0  0  0  0  0  0  0  0  0  0  0
   10.3303   -5.6678   19.4990 He  0  0  0  0  0  0  0  0  0  0  0  0
   12.0461   -4.3330   20.3006 He  0  0  0  0  0  0  0  0  0  0  0  0
   10.6515   -3.2678   21.7280 He  0  0  0  0  0  0  0  0  0  0  0  0
    7.0789   -7.6132   17.9466 He  0  0  0  0  0  0  0  0  0  0  0  0
    9.4304   -4.7657   20.8280 He  0  0  0  0  0  0  0  0  0  0  0  0
    8.0506   -6.9088   15.5976 He  0  0  0  0  0  0  0  0  0  0  0  0
    8.5446   -3.3164   18.8217 He  0  0  0  0  0  0  0  0  0  0  0  0
    7.9765   -8.2025   15.3337 He  0  0  0  0  0  0  0  0  0  0  0  0
   11.1369   -3.8592   18.0140 He  0  0  0  0  0  0  0  0  0  0  0  0
   10.1624   -3.8776   15.9770 He  0  0  0  0  0  0  0  0  0  0  0  0
  1  2  3  0
  1  3  1  0
  1  8  3  0
  1 11  4  0
  1 12  3  0
  1 15  2  0
  1 16  2  0
  2  4  3  0
  2  8  1  0
  2 14  1  0
  2 16  1  0
  3  7  4  0
  3  8  3  0
  3 12  1  0
  3 14  3  0
  3 16  2  0
  3 17  2  0
  4  6  1  0
  4  7  4  0
  4  9  4  0
  4 13  1  0
  4 14  1  0
  4 17  1  0
  5  8  4  0
  5 11  1  0
  5 12  4  0
  5 13  2  0
  5 16  2  0
  6  9  1  0
  6 16  2  0
  7 10  2  0
  7 16  2  0
  7 17  4  0
  8 10  3  0
  8 12  4  0
  8 13  4  0
  8 14  2  0
  8 16  2  0
  8 17  2  0
  9 13  2  0
 10 11  4  0
 10 12  1  0
 10 14  1  0
 10 17  3  0
 11 12  4  0
 11 13  4  0
 12 14  2  0
 12 17  4  0
 13 14  1  0
 13 15  3  0
 14 17  4  0
M  END
$$$$

 Created by Python create_sdf_string function

 29 10  0  0  0  0  0  0  0  0999 V2000
   10.0859   -3.9095   20.5928 C   0  0  0  0  0  0  0  0  0  0  0  0
    9.2477   -4.9758   16.5764 C   0  0  0  0  0  0  0  0  0  0  0  0
    6.2824   -6.4021   15.8099 O   0  0  0  0  0  0  0  0  0  0  0  0
    8.1900   -7.4953   16.9712 C   0  0  0  0  0  0  0  0  0  0  0  0
    7.1125   -6.7270   18.4208 F   0  0  0  0  0  0  0  0  0  0  0  0
   10.1843   -7.4001   18.4020 C   0  0  0  0  0  0  0  0  0  0  0  0
   11.9268   -3.4295   16.1965 C   0  0  0  0  0  0  0  0  0  0  0  0
   10.5008   -5.6633   19.4338 C   0  0  0  0  0  0  0  0  0  0  0  0
   11.9747   -4.6016   20.7263 C   0  0  0  0  0  0  0  0  0  0  0  0
   10.4477   -5.8946   19.1502 C   0  0  0  0  0  0  0  0  0  0  0  0
    8.4203   -8.3977   17.1684 C   0  0  0  0  0  0  0  0  0  0  0  0
   10.8565   -3.3741   22.5382 C   0  0  0  0  0  0  0  0  0  0  0  0
    7.1504   -7.7164   17.7362 C   0  0  0  0  0  0  0  0  0  0  0  0
   11.6602   -3.6974   16.6028 C   0  0  0  0  0  0  0  0  0  0  0  0
   10.0885   -4.1923   20.5465 C   0  0  0  0  0  0  0  0  0  0  0  0
    9.8493   -5.5538   17.8200 C   0  0  0  0  0  0  0  0  0  0  0  0
    7.9760   -7.0010   15.8313 C   0  0  0  0  0  0  0  0  0  0  0  0
   11.4982   -4.7122   21.1457 C   0  0  0  0  0  0  0  0  0  0  0  0
   12.2324   -4.5759   22.0101 C   0  0  0  0  0  0  0  0  0  0  0  0
    6.8385   -9.5193   16.0956 F   0  0  0  0  0  0  0  0  0  0  0  0
    6.6917   -7.2538   16.0740 C   0  0  0  0  0  0  0  0  0  0  0  0
    9.4014   -4.1176   19.3903 C   0  0  0  0  0  0  0  0  0  0  0  0
   11.5710   -3.7860   22.8118 C   0  0  0  0  0  0  0  0  0  0  0  0
    8.4473   -7.2255   17.1227 C   0  0  0  0  0  0  0  0  0  0  0  0
    7.8536   -8.3841   15.6088 C   0  0  0  0  0  0  0  0  0  0  0  0
   11.1603   -4.1670   17.9008 C   0  0  0  0  0  0  0  0  0  0  0  0
    9.9459   -3.7598   15.8984 C   0  0  0  0  0  0  0  0  0  0  0  0
    9.9793   -3.6752   15.9490 C   0  0  0  0  0  0  0  0  0  0  0  0
    6.1349   -8.2942   17.1093 F   0  0  0  0  0  0  0  0  0  0  0  0
  1 15  4  0
  2 27  4  0
  3 21  1  0
  5 13  1  0
  7 14  4  0
  8 10  4  0
 12 23  4  0
 18 19  4  0
 19 23  4  0
 27 28  4  0
M  END
$$$$

 Created by Python create_sdf_string function

 29 41  0  0  0  0  0  0  0  0999 V2000
    6.7331   -5.8077   14.7031 O   0  0  0  0  0  0  0  0  0  0  0  0
    8.9013   -5.9811   19.7150 S   0  0  0  0  0  0  0  0  0  0  0  0
    9.3930   -5.5143   19.4663 P   0  0  0  0  0  0  0  0  0  0  0  0
   10.6369   -2.0658   22.5541 F   0  0  0  0  0  0  0  0  0  0  0  0
   11.7212   -3.5551   16.1293 P   0  0  0  0  0  0  0  0  0  0  0  0
    8.7340   -5.0032   19.9273 C   0  0  0  0  0  0  0  0  0  0  0  0
   10.4104   -5.1671   18.0978 P   0  0  0  0  0  0  0  0  0  0  0  0
   10.0109   -9.3781   14.7214 P   0  0  0  0  0  0  0  0  0  0  0  0
   11.3626   -4.2530   21.8112 C   0  0  0  0  0  0  0  0  0  0  0  0
   12.3527   -5.3415   21.3053 C   0  0  0  0  0  0  0  0  0  0  0  0
    7.8732   -9.5834   15.9041 C   0  0  0  0  0  0  0  0  0  0  0  0
   12.2012   -3.5316   23.0521 C   0  0  0  0  0  0  0  0  0  0  0  0
    8.2922   -7.7992   17.5144 C   0  0  0  0  0  0  0  0  0  0  0  0
   10.9668   -4.6969   18.2762 O   0  0  0  0  0  0  0  0  0  0  0  0
    9.3897   -3.9438   15.2294 Cl  0  0  0  0  0  0  0  0  0  0  0  0
    5.6102   -8.6672   17.2647 O   0  0  0  0  0  0  0  0  0  0  0  0
   10.4867   -4.7353   20.2558 He  0  0  0  0  0  0  0  0  0  0  0  0
    9.2743   -5.0158   17.0967 He  0  0  0  0  0  0  0  0  0  0  0  0
    7.4901   -8.2350   15.4133 He  0  0  0  0  0  0  0  0  0  0  0  0
   11.0526   -1.3774   16.7645 He  0  0  0  0  0  0  0  0  0  0  0  0
    9.6341   -4.6286   19.4555 He  0  0  0  0  0  0  0  0  0  0  0  0
   11.4131   -7.2524   21.1153 He  0  0  0  0  0  0  0  0  0  0  0  0
   10.4717   -5.0900   19.8624 He  0  0  0  0  0  0  0  0  0  0  0  0
    7.1926   -8.6754   18.8419 He  0  0  0  0  0  0  0  0  0  0  0  0
    7.3968   -7.4737   18.5044 He  0  0  0  0  0  0  0  0  0  0  0  0
    6.5232   -8.6188   16.4513 He  0  0  0  0  0  0  0  0  0  0  0  0
    9.9462   -4.1351   21.1531 He  0  0  0  0  0  0  0  0  0  0  0  0
    7.1022   -7.1522   15.2314 He  0  0  0  0  0  0  0  0  0  0  0  0
   10.2807   -3.0392   15.3666 He  0  0  0  0  0  0  0  0  0  0  0  0
  1  2  2  0
  1  6  4  0
  1  7  1  0
  1  8  2  0
  1 12  1  0
  1 14  4  0
  1 16  3  0
  2  7  2  0
  2  8  3  0
  2 14  3  0
  2 16  2  0
  3  4  1  0
  3  7  4  0
  3 10  2  0
  3 13  2  0
  3 14  4  0
  3 16  2  0
  4  9  3  0
  4 12  4  0
  5  7  3  0
  5  8  2  0
  5 11  4  0
  5 13  3  0
  6  7  1  0
  6 14  4  0
  6 15  1  0
  6 16  4  0
  7 11  2  0
  7 13  3  0
  8 10  3  0
  9 10  4  0
  9 15  1  0
  9 16  1  0
 10 11  4  0
 10 12  4  0
 10 15  3  0
 10 16  4  0
 11 13  1  0
 12 13  2  0
 13 14  2  0
 13 15  2  0
M  END
$$$$

 Created by Python create_sdf_string function

 29  7  0  0  0  0  0  0  0  0999 V2000
   10.8622   -4.4716   20.7720 C   0  0  0  0  0  0  0  0  0  0  0  0
    9.2541   -5.0450   16.6411 C   0  0  0  0  0  0  0  0  0  0  0  0
    7.1199   -5.9937   15.4075 O   0  0  0  0  0  0  0  0  0  0  0  0
    7.4605   -8.0032   15.6793 C   0  0  0  0  0  0  0  0  0  0  0  0
    9.1155   -6.3498   18.9880 C   0  0  0  0  0  0  0  0  0  0  0  0
    9.5949   -5.8225   18.8428 C   0  0  0  0  0  0  0  0  0  0  0  0
   11.6927   -2.9123   16.8096 C   0  0  0  0  0  0  0  0  0  0  0  0
   10.0508   -4.6647   19.2734 C   0  0  0  0  0  0  0  0  0  0  0  0
   11.2471   -6.0024   20.6331 C   0  0  0  0  0  0  0  0  0  0  0  0
   10.7519   -5.0097   19.8692 C   0  0  0  0  0  0  0  0  0  0  0  0
    6.8486   -8.0548   18.2520 C   0  0  0  0  0  0  0  0  0  0  0  0
   10.9296   -2.8506   22.9280 C   0  0  0  0  0  0  0  0  0  0  0  0
    7.4126   -7.5480   18.0672 C   0  0  0  0  0  0  0  0  0  0  0  0
   11.5864   -3.5745   16.2892 C   0  0  0  0  0  0  0  0  0  0  0  0
    9.3709   -5.2640   19.3633 C   0  0  0  0  0  0  0  0  0  0  0  0
   10.2825   -4.8741   17.7900 C   0  0  0  0  0  0  0  0  0  0  0  0
    8.5278   -8.5197   15.0597 C   0  0  0  0  0  0  0  0  0  0  0  0
   11.6583   -4.2885   22.0630 C   0  0  0  0  0  0  0  0  0  0  0  0
   12.3171   -4.9352   21.9370 C   0  0  0  0  0  0  0  0  0  0  0  0
    7.5233   -8.6307   15.9382 C   0  0  0  0  0  0  0  0  0  0  0  0
    6.3666   -8.3764   16.6215 C   0  0  0  0  0  0  0  0  0  0  0  0
   10.4165   -3.5715   21.6169 C   0  0  0  0  0  0  0  0  0  0  0  0
   11.8553   -3.6737   22.9531 C   0  0  0  0  0  0  0  0  0  0  0  0
    8.3173   -7.7897   17.3037 C   0  0  0  0  0  0  0  0  0  0  0  0
    7.2294   -7.1945   15.6214 C   0  0  0  0  0  0  0  0  0  0  0  0
   11.0283   -4.6824   18.2250 C   0  0  0  0  0  0  0  0  0  0  0  0
    9.6358   -3.8250   15.8524 C   0  0  0  0  0  0  0  0  0  0  0  0
   10.7964   -3.6984   15.7552 C   0  0  0  0  0  0  0  0  0  0  0  0
    5.6535   -8.2910   17.3493 O   0  0  0  0  0  0  0  0  0  0  0  0
  7 14  4  0
 11 13  1  0
 12 23  4  0
 14 28  4  0
 18 19  4  0
 19 23  4  0
 27 28  4  0
M  END
$$$$

 Created by Python create_sdf_string function

 29 42  0  0  0  0  0  0  0  0999 V2000
   10.0662   -5.7740   18.4623 B   0  0  0  0  0  0  0  0  0  0  0  0
   10.7621   -2.9409   17.0851 N   0  0  0  0  0  0  0  0  0  0  0  0
   12.4338   -6.1126   19.7566 P   0  0  0  0  0  0  0  0  0  0  0  0
    7.6450   -8.1818   18.1707 B   0  0  0  0  0  0  0  0  0  0  0  0
   11.1626   -4.6873   22.3262 Cl  0  0  0  0  0  0  0  0  0  0  0  0
    6.5257   -7.8607   17.2354 C   0  0  0  0  0  0  0  0  0  0  0  0
   11.3547   -3.4118   16.0661 C   0  0  0  0  0  0  0  0  0  0  0  0
   12.0094   -4.5073   21.5633 C   0  0  0  0  0  0  0  0  0  0  0  0
   11.4492   -4.7168   22.4175 C   0  0  0  0  0  0  0  0  0  0  0  0
    9.1524   -8.6201   14.4259 C   0  0  0  0  0  0  0  0  0  0  0  0
   11.3971   -3.3089   21.9478 C   0  0  0  0  0  0  0  0  0  0  0  0
   11.9713   -3.5776   23.0657 C   0  0  0  0  0  0  0  0  0  0  0  0
   10.6367   -5.0654   18.2857 C   0  0  0  0  0  0  0  0  0  0  0  0
   11.1939   -1.7182   18.5865 P   0  0  0  0  0  0  0  0  0  0  0  0
    4.4339   -7.3138   15.7115 Cl  0  0  0  0  0  0  0  0  0  0  0  0
   10.9166   -3.8432   20.2867 He  0  0  0  0  0  0  0  0  0  0  0  0
    9.2361   -4.5291   16.0390 He  0  0  0  0  0  0  0  0  0  0  0  0
    7.9077   -5.5794   14.0702 He  0  0  0  0  0  0  0  0  0  0  0  0
    7.5501   -8.1016   14.8602 He  0  0  0  0  0  0  0  0  0  0  0  0
   10.4074   -5.6603   19.4756 He  0  0  0  0  0  0  0  0  0  0  0  0
   10.3452   -4.6271   20.2759 He  0  0  0  0  0  0  0  0  0  0  0  0
   12.3310   -6.5722   20.5608 He  0  0  0  0  0  0  0  0  0  0  0  0
    9.9624   -6.6053   19.4638 He  0  0  0  0  0  0  0  0  0  0  0  0
    9.7082   -4.7047   18.8701 He  0  0  0  0  0  0  0  0  0  0  0  0
    8.3556   -7.6522   14.5121 He  0  0  0  0  0  0  0  0  0  0  0  0
    7.2341   -9.1441   15.4847 He  0  0  0  0  0  0  0  0  0  0  0  0
    8.9486   -8.1145   16.8019 He  0  0  0  0  0  0  0  0  0  0  0  0
    6.8320   -6.8851   14.3969 He  0  0  0  0  0  0  0  0  0  0  0  0
    9.1783   -3.9250   15.4925 He  0  0  0  0  0  0  0  0  0  0  0  0
  1  2  4  0
  1  8  3  0
  1 11  2  0
  1 13  4  0
  1 15  4  0
  2  4  2  0
  2  6  2  0
  2 12  4  0
  3  4  1  0
  3  6  4  0
  3  8  4  0
  3  9  2  0
  3 10  3  0
  3 11  3  0
  3 12  2  0
  3 13  1  0
  3 14  4  0
  4 11  3  0
  4 13  3  0
  4 14  4  0
  4 15  2  0
  5  7  4  0
  5 12  4  0
  5 13  2  0
  6  7  4  0
  6 10  1  0
  6 11  3  0
  6 13  2  0
  6 14  1  0
  7 14  4  0
  8  9  4  0
  8 10  2  0
  8 11  4  0
  8 14  1  0
  9 12  4  0
  9 15  4  0
 10 11  3  0
 10 13  4  0
 10 14  1  0
 10 15  1  0
 13 14  2  0
 13 15  3  0
M  END
$$$$

 Created by Python create_sdf_string function

 29 12  0  0  0  0  0  0  0  0999 V2000
   10.9042   -3.6920   20.6403 C   0  0  0  0  0  0  0  0  0  0  0  0
    9.1930   -4.6138   16.2169 C   0  0  0  0  0  0  0  0  0  0  0  0
    7.5959   -5.7323   15.3403 C   0  0  0  0  0  0  0  0  0  0  0  0
    7.2287   -8.0777   15.5450 C   0  0  0  0  0  0  0  0  0  0  0  0
   10.4907   -5.9888   19.2278 C   0  0  0  0  0  0  0  0  0  0  0  0
    9.8489   -5.6365   17.8543 C   0  0  0  0  0  0  0  0  0  0  0  0
   11.0744   -3.4617   16.9080 C   0  0  0  0  0  0  0  0  0  0  0  0
   10.6336   -4.4021   20.1130 C   0  0  0  0  0  0  0  0  0  0  0  0
   12.4180   -5.7454   20.4735 C   0  0  0  0  0  0  0  0  0  0  0  0
   12.2897   -5.8176   19.7932 C   0  0  0  0  0  0  0  0  0  0  0  0
    7.5753   -7.9574   17.7660 C   0  0  0  0  0  0  0  0  0  0  0  0
   11.1625   -3.7351   22.6291 C   0  0  0  0  0  0  0  0  0  0  0  0
    6.6641   -7.7387   17.4176 C   0  0  0  0  0  0  0  0  0  0  0  0
   11.3151   -3.3788   16.3972 C   0  0  0  0  0  0  0  0  0  0  0  0
   10.1033   -6.9394   19.0277 C   0  0  0  0  0  0  0  0  0  0  0  0
    9.9901   -4.6931   18.4273 C   0  0  0  0  0  0  0  0  0  0  0  0
    8.1227   -7.7195   15.2417 C   0  0  0  0  0  0  0  0  0  0  0  0
   12.0807   -4.9106   21.6970 C   0  0  0  0  0  0  0  0  0  0  0  0
   11.9948   -4.8379   22.7409 C   0  0  0  0  0  0  0  0  0  0  0  0
    8.2328   -8.2946   15.1769 C   0  0  0  0  0  0  0  0  0  0  0  0
    7.1765   -8.8092   15.7034 C   0  0  0  0  0  0  0  0  0  0  0  0
   11.2221   -3.3870   21.9469 C   0  0  0  0  0  0  0  0  0  0  0  0
   11.5864   -3.9538   23.5640 C   0  0  0  0  0  0  0  0  0  0  0  0
    8.4536   -7.8572   17.1195 C   0  0  0  0  0  0  0  0  0  0  0  0
    6.5502   -6.9250   15.1759 C   0  0  0  0  0  0  0  0  0  0  0  0
   10.5458   -4.9189   18.2198 C   0  0  0  0  0  0  0  0  0  0  0  0
    9.2280   -4.0911   15.9182 C   0  0  0  0  0  0  0  0  0  0  0  0
   11.2649   -2.4796   18.0614 O   0  0  0  0  0  0  0  0  0  0  0  0
    5.3618   -7.6967   16.2462 C   0  0  0  0  0  0  0  0  0  0  0  0
  1 22  4  0
  2 27  4  0
  6 26  4  0
  7 14  4  0
  9 10  4  0
  9 18  4  0
 11 13  1  0
 12 22  4  0
 12 23  4  0
 14 28  4  0
 18 19  4  0
 19 23  4  0
M  END
$$$$

 Created by Python create_sdf_string function

 29 72  0  0  0  0  0  0  0  0999 V2000
   11.5739   -4.3400   19.9600 C   0  0  0  0  0  0  0  0  0  0  0  0
    8.0795   -5.5498   15.5338 N   0  0  0  0  0  0  0  0  0  0  0  0
    7.1106   -8.0215   15.6136 C   0  0  0  0  0  0  0  0  0  0  0  0
   10.1264   -5.6563   20.7172 S   0  0  0  0  0  0  0  0  0  0  0  0
   11.4429   -3.9841   17.8058 C   0  0  0  0  0  0  0  0  0  0  0  0
   12.8357   -6.7746   22.0739 F   0  0  0  0  0  0  0  0  0  0  0  0
    8.2504   -9.0394   17.0635 O   0  0  0  0  0  0  0  0  0  0  0  0
   10.4881   -3.8347   21.8423 C   0  0  0  0  0  0  0  0  0  0  0  0
    6.1585   -7.5222   17.6045 C   0  0  0  0  0  0  0  0  0  0  0  0
   11.5951   -2.9319   15.9018 C   0  0  0  0  0  0  0  0  0  0  0  0
    9.8558   -6.8264   20.8551 N   0  0  0  0  0  0  0  0  0  0  0  0
   12.0649   -4.5113   21.4400 C   0  0  0  0  0  0  0  0  0  0  0  0
   12.0588   -4.4839   22.5871 C   0  0  0  0  0  0  0  0  0  0  0  0
    6.1339   -8.7049   15.3893 C   0  0  0  0  0  0  0  0  0  0  0  0
    6.6721  -10.3299   16.7897 C   0  0  0  0  0  0  0  0  0  0  0  0
   11.9420   -3.9215   24.4334 C   0  0  0  0  0  0  0  0  0  0  0  0
    7.3468   -6.1396   17.5485 C   0  0  0  0  0  0  0  0  0  0  0  0
   10.2264   -4.6981   18.0171 C   0  0  0  0  0  0  0  0  0  0  0  0
    9.0456   -4.2604   15.9000 C   0  0  0  0  0  0  0  0  0  0  0  0
   10.9326   -3.5397   18.5263 O   0  0  0  0  0  0  0  0  0  0  0  0
    5.2814   -8.3867   16.3095 C   0  0  0  0  0  0  0  0  0  0  0  0
    8.6741   -6.2791   16.7540 He  0  0  0  0  0  0  0  0  0  0  0  0
    8.7385   -5.0307   17.8542 He  0  0  0  0  0  0  0  0  0  0  0  0
    9.9431   -2.1457   20.1243 He  0  0  0  0  0  0  0  0  0  0  0  0
   12.3419   -6.2273   18.8148 He  0  0  0  0  0  0  0  0  0  0  0  0
   10.2302   -6.0064   17.0522 He  0  0  0  0  0  0  0  0  0  0  0  0
    8.2277   -8.2959   15.6774 He  0  0  0  0  0  0  0  0  0  0  0  0
   12.3342   -3.6690   23.5655 He  0  0  0  0  0  0  0  0  0  0  0  0
    6.6921   -7.4444   14.1946 He  0  0  0  0  0  0  0  0  0  0  0  0
  1  5  2  0
  1  9  3  0
  1 11  4  0
  1 12  1  0
  1 14  1  0
  1 17  1  0
  1 18  2  0
  1 21  1  0
  2  3  4  0
  2  6  1  0
  2  7  4  0
  2  8  2  0
  2 14  2  0
  2 16  2  0
  3  5  1  0
  3 11  3  0
  3 15  3  0
  3 17  4  0
  3 18  1  0
  3 20  3  0
  4  5  1  0
  4  7  4  0
  4 15  2  0
  4 17  1  0
  4 21  4  0
  5  6  3  0
  5  7  3  0
  5  8  3  0
  5  9  1  0
  5 11  2  0
  5 12  4  0
  5 17  1  0
  5 18  4  0
  5 19  2  0
  6 11  4  0
  6 13  4  0
  6 14  1  0
  6 18  4  0
  6 20  4  0
  7  9  1  0
  7 11  2  0
  7 13  1  0
  8 10  4  0
  8 11  2  0
  8 15  2  0
  8 16  1  0
  8 20  4  0
  8 21  3  0
  9 11  4  0
  9 13  2  0
  9 16  3  0
  9 20  2  0
  9 21  3  0
 10 11  3  0
 10 15  3  0
 10 20  2  0
 11 16  3  0
 12 15  2  0
 12 21  3  0
 13 15  4  0
 13 16  4  0
 13 17  4  0
 13 18  4  0
 13 19  1  0
 14 15  2  0
 14 17  3  0
 14 18  4  0
 14 20  4  0
 15 16  2  0
 16 21  1  0
 17 21  3  0
 20 21  4  0
M  END
$$$$

 Created by Python create_sdf_string function

 29 10  0  0  0  0  0  0  0  0999 V2000
   11.5508   -4.8081   20.0799 C   0  0  0  0  0  0  0  0  0  0  0  0
    8.6488   -6.1457   16.5578 C   0  0  0  0  0  0  0  0  0  0  0  0
    8.0560   -5.8795   15.8464 C   0  0  0  0  0  0  0  0  0  0  0  0
    7.1480   -7.6830   15.9994 C   0  0  0  0  0  0  0  0  0  0  0  0
   10.7796   -5.0068   20.5797 C   0  0  0  0  0  0  0  0  0  0  0  0
    9.0544   -5.5183   17.6425 C   0  0  0  0  0  0  0  0  0  0  0  0
   11.1882   -4.0584   17.5695 C   0  0  0  0  0  0  0  0  0  0  0  0
   10.3311   -3.2036   20.9195 O   0  0  0  0  0  0  0  0  0  0  0  0
   12.5985   -5.4044   22.2466 C   0  0  0  0  0  0  0  0  0  0  0  0
   11.9324   -5.6455   18.7710 C   0  0  0  0  0  0  0  0  0  0  0  0
    7.9348   -8.3444   17.3526 C   0  0  0  0  0  0  0  0  0  0  0  0
   10.9171   -3.6915   22.0987 C   0  0  0  0  0  0  0  0  0  0  0  0
    6.2849   -7.9897   17.7532 C   0  0  0  0  0  0  0  0  0  0  0  0
   11.4963   -3.4568   16.4239 C   0  0  0  0  0  0  0  0  0  0  0  0
   10.8167   -6.3172   19.8824 C   0  0  0  0  0  0  0  0  0  0  0  0
    9.9866   -5.7251   17.4434 C   0  0  0  0  0  0  0  0  0  0  0  0
    8.0210   -8.1161   15.7311 C   0  0  0  0  0  0  0  0  0  0  0  0
   11.8296   -4.8216   21.3443 C   0  0  0  0  0  0  0  0  0  0  0  0
   12.2397   -4.9366   22.8939 C   0  0  0  0  0  0  0  0  0  0  0  0
    5.9744   -8.8544   15.8475 C   0  0  0  0  0  0  0  0  0  0  0  0
    6.3695   -9.6802   16.5166 C   0  0  0  0  0  0  0  0  0  0  0  0
   11.6042   -3.8226   23.6097 C   0  0  0  0  0  0  0  0  0  0  0  0
   11.7086   -4.0404   23.9620 C   0  0  0  0  0  0  0  0  0  0  0  0
    7.6388   -6.7515   17.4715 C   0  0  0  0  0  0  0  0  0  0  0  0
    6.6557   -7.7374   15.2539 C   0  0  0  0  0  0  0  0  0  0  0  0
   10.5460   -4.8497   18.0337 C   0  0  0  0  0  0  0  0  0  0  0  0
    9.3971   -4.2403   16.0901 C   0  0  0  0  0  0  0  0  0  0  0  0
   11.1205   -3.3691   18.3532 O   0  0  0  0  0  0  0  0  0  0  0  0
    5.2751   -8.3339   16.6796 C   0  0  0  0  0  0  0  0  0  0  0  0
  2  3  4  0
  4 25  1  0
  8 12  4  0
  9 19  4  0
 11 13  1  0
 13 29  1  0
 19 23  4  0
 20 21  1  0
 20 29  1  0
 22 23  4  0
M  END
$$$$

 Created by Python create_sdf_string function

 29 33  0  0  0  0  0  0  0  0999 V2000
    7.5829   -6.4180   15.7683 F   0  0  0  0  0  0  0  0  0  0  0  0
    8.5061   -5.2535   17.3583 C   0  0  0  0  0  0  0  0  0  0  0  0
   13.1466   -4.2959   22.7575 C   0  0  0  0  0  0  0  0  0  0  0  0
   11.9658   -3.9594   22.5452 C   0  0  0  0  0  0  0  0  0  0  0  0
    7.7010   -6.0731   18.3987 B   0  0  0  0  0  0  0  0  0  0  0  0
    7.5193   -7.5713   15.3615 C   0  0  0  0  0  0  0  0  0  0  0  0
   11.5908   -4.7109   20.8605 C   0  0  0  0  0  0  0  0  0  0  0  0
   12.2798   -4.3872   22.7612 C   0  0  0  0  0  0  0  0  0  0  0  0
   10.9866   -5.0234   24.6878 C   0  0  0  0  0  0  0  0  0  0  0  0
   11.8325   -4.2211   24.4608 C   0  0  0  0  0  0  0  0  0  0  0  0
    6.6418   -7.7318   18.2582 C   0  0  0  0  0  0  0  0  0  0  0  0
   10.4949   -4.9756   18.2144 C   0  0  0  0  0  0  0  0  0  0  0  0
    8.9337   -4.1694   16.3323 C   0  0  0  0  0  0  0  0  0  0  0  0
    4.6689   -7.0308   16.0969 C   0  0  0  0  0  0  0  0  0  0  0  0
   11.5265   -4.9854   19.9744 He  0  0  0  0  0  0  0  0  0  0  0  0
    8.8844   -4.6775   15.4690 He  0  0  0  0  0  0  0  0  0  0  0  0
    6.0354   -7.8448   16.0491 He  0  0  0  0  0  0  0  0  0  0  0  0
   11.8541   -5.4487   20.0059 He  0  0  0  0  0  0  0  0  0  0  0  0
   11.9012   -4.8668   17.2509 He  0  0  0  0  0  0  0  0  0  0  0  0
   10.8625   -3.8699   21.5278 He  0  0  0  0  0  0  0  0  0  0  0  0
   11.3746   -5.9681   19.5688 He  0  0  0  0  0  0  0  0  0  0  0  0
    7.8665   -8.8935   17.4188 He  0  0  0  0  0  0  0  0  0  0  0  0
    7.1659   -8.1670   16.1041 He  0  0  0  0  0  0  0  0  0  0  0  0
   11.5525   -3.0187   16.6281 He  0  0  0  0  0  0  0  0  0  0  0  0
    9.6783   -6.3677   18.8988 He  0  0  0  0  0  0  0  0  0  0  0  0
    8.3229   -7.3675   15.9691 He  0  0  0  0  0  0  0  0  0  0  0  0
    8.3438  -10.0841   16.5470 He  0  0  0  0  0  0  0  0  0  0  0  0
    7.2937   -7.7278   15.9321 He  0  0  0  0  0  0  0  0  0  0  0  0
    9.5793   -4.0960   17.1292 He  0  0  0  0  0  0  0  0  0  0  0  0
  1  2  1  0
  1  8  3  0
  1 11  4  0
  1 12  3  0
  2  3  4  0
  2  7  2  0
  2  9  4  0
  2 10  2  0
  2 11  3  0
  2 13  4  0
  3  5  3  0
  3  8  2  0
  3 10  2  0
  3 11  2  0
  3 12  1  0
  3 13  3  0
  3 14  2  0
  4  5  3  0
  4  7  4  0
  5  6  2  0
  5 11  2  0
  6  7  4  0
  6  8  3  0
  6  9  2  0
  6 13  4  0
  7 11  3  0
  7 13  4  0
  7 14  3  0
  8  9  4  0
  8 10  4  0
  9 10  4  0
 10 11  2  0
 13 14  3  0
M  END
$$$$

 Created by Python create_sdf_string function

 29 14  0  0  0  0  0  0  0  0999 V2000
   11.3418   -4.7565   19.7568 C   0  0  0  0  0  0  0  0  0  0  0  0
    7.5497   -6.3683   16.0401 C   0  0  0  0  0  0  0  0  0  0  0  0
    8.8909   -4.3347   15.8277 C   0  0  0  0  0  0  0  0  0  0  0  0
    6.0249   -8.1085   16.2509 C   0  0  0  0  0  0  0  0  0  0  0  0
   11.8658   -5.1411   20.1032 C   0  0  0  0  0  0  0  0  0  0  0  0
    8.7589   -5.8774   17.0818 C   0  0  0  0  0  0  0  0  0  0  0  0
   11.4137   -3.9781   17.4804 C   0  0  0  0  0  0  0  0  0  0  0  0
   10.8382   -3.9611   21.8193 C   0  0  0  0  0  0  0  0  0  0  0  0
   12.8860   -4.5606   22.7647 C   0  0  0  0  0  0  0  0  0  0  0  0
   11.0138   -5.4232   19.6385 C   0  0  0  0  0  0  0  0  0  0  0  0
    7.6139   -8.1825   17.6394 C   0  0  0  0  0  0  0  0  0  0  0  0
   11.5982   -4.2748   22.1394 C   0  0  0  0  0  0  0  0  0  0  0  0
    6.9442   -7.9628   16.0538 C   0  0  0  0  0  0  0  0  0  0  0  0
   11.5064   -3.4022   16.6044 C   0  0  0  0  0  0  0  0  0  0  0  0
    9.4069   -6.5050   18.4513 C   0  0  0  0  0  0  0  0  0  0  0  0
    8.2457   -6.8438   18.1964 C   0  0  0  0  0  0  0  0  0  0  0  0
    7.4728   -7.9143   15.5989 C   0  0  0  0  0  0  0  0  0  0  0  0
   11.7573   -4.7163   21.1067 C   0  0  0  0  0  0  0  0  0  0  0  0
   12.2971   -4.6200   23.3213 C   0  0  0  0  0  0  0  0  0  0  0  0
    8.4039   -7.1634   15.8319 C   0  0  0  0  0  0  0  0  0  0  0  0
    8.1197   -9.0751   16.3725 C   0  0  0  0  0  0  0  0  0  0  0  0
   11.3709   -4.3154   24.3108 C   0  0  0  0  0  0  0  0  0  0  0  0
   11.5053   -4.2650   24.2995 C   0  0  0  0  0  0  0  0  0  0  0  0
    6.5887   -7.7820   18.0455 C   0  0  0  0  0  0  0  0  0  0  0  0
    7.1776   -7.8699   15.7656 C   0  0  0  0  0  0  0  0  0  0  0  0
   10.7712   -4.8043   18.5094 C   0  0  0  0  0  0  0  0  0  0  0  0
    9.4034   -4.4970   16.4026 C   0  0  0  0  0  0  0  0  0  0  0  0
   10.1078   -4.3206   16.9937 C   0  0  0  0  0  0  0  0  0  0  0  0
    5.2635   -7.5373   16.2963 C   0  0  0  0  0  0  0  0  0  0  0  0
  1 26  4  0
  2  6  1  0
  4 29  1  0
  6 15  1  0
  7 14  4  0
  8 12  4  0
  9 19  4  0
 11 16  1  0
 11 24  1  0
 12 18  4  0
 13 25  1  0
 15 16  1  0
 19 22  4  0
 22 23  4  0
M  END
$$$$

 Created by Python create_sdf_string function

 29 61  0  0  0  0  0  0  0  0999 V2000
    6.3620   -9.1506   15.5083 C   0  0  0  0  0  0  0  0  0  0  0  0
   11.1186   -5.0998   18.5117 N   0  0  0  0  0  0  0  0  0  0  0  0
    8.1616   -5.3843   17.5700 B   0  0  0  0  0  0  0  0  0  0  0  0
    9.7316   -4.5362   16.8190 C   0  0  0  0  0  0  0  0  0  0  0  0
   11.3477   -4.7238   21.3973 F   0  0  0  0  0  0  0  0  0  0  0  0
   13.5451   -3.9830   23.1767 Cl  0  0  0  0  0  0  0  0  0  0  0  0
   10.6719   -6.4812   20.2715 C   0  0  0  0  0  0  0  0  0  0  0  0
    8.4157   -7.8175   18.4857 C   0  0  0  0  0  0  0  0  0  0  0  0
    5.5518   -7.2071   16.0275 I   0  0  0  0  0  0  0  0  0  0  0  0
   11.2093   -3.1517   17.0101 C   0  0  0  0  0  0  0  0  0  0  0  0
    7.5438   -6.7428   17.6720 C   0  0  0  0  0  0  0  0  0  0  0  0
   11.4527   -4.4127   21.8638 C   0  0  0  0  0  0  0  0  0  0  0  0
   12.0825   -4.7728   23.2124 C   0  0  0  0  0  0  0  0  0  0  0  0
    7.1306   -8.9030   17.6730 F   0  0  0  0  0  0  0  0  0  0  0  0
   11.0521   -4.0427   24.4316 C   0  0  0  0  0  0  0  0  0  0  0  0
    5.3499   -7.4572   19.1880 C   0  0  0  0  0  0  0  0  0  0  0  0
    7.3442   -8.3944   16.7413 C   0  0  0  0  0  0  0  0  0  0  0  0
   10.9561   -4.8257   18.3948 N   0  0  0  0  0  0  0  0  0  0  0  0
    9.6710   -4.5350   16.4601 C   0  0  0  0  0  0  0  0  0  0  0  0
   10.7903   -4.6738   20.5211 He  0  0  0  0  0  0  0  0  0  0  0  0
    7.1924   -4.9336   14.8339 He  0  0  0  0  0  0  0  0  0  0  0  0
    9.1919   -4.7100   15.7444 He  0  0  0  0  0  0  0  0  0  0  0  0
   12.4229   -4.1810   21.3150 He  0  0  0  0  0  0  0  0  0  0  0  0
    8.9099   -6.4941   18.0548 He  0  0  0  0  0  0  0  0  0  0  0  0
    7.8168   -8.1379   14.2975 He  0  0  0  0  0  0  0  0  0  0  0  0
    7.2857   -7.3621   15.4272 He  0  0  0  0  0  0  0  0  0  0  0  0
   12.1731   -4.4001   24.8022 He  0  0  0  0  0  0  0  0  0  0  0  0
   12.1028   -5.0911   17.0368 He  0  0  0  0  0  0  0  0  0  0  0  0
    3.3373   -5.9471   15.8577 He  0  0  0  0  0  0  0  0  0  0  0  0
  1  2  4  0
  1  3  1  0
  1  5  4  0
  1  6  1  0
  1  8  3  0
  1 10  4  0
  1 13  2  0
  1 14  1  0
  1 15  2  0
  1 18  2  0
  2  3  2  0
  2  5  3  0
  2  9  4  0
  2 10  1  0
  2 12  3  0
  2 14  1  0
  2 17  3  0
  3  4  3  0
  3  6  4  0
  3 10  2  0
  3 13  1  0
  4  5  3  0
  4  9  2  0
  4 10  1  0
  4 11  1  0
  4 12  2  0
  4 14  3  0
  4 15  2  0
  4 18  2  0
  5  6  3  0
  5  8  2  0
  5 11  1  0
  5 19  3  0
  6  8  1  0
  6 14  4  0
  6 15  1  0
  6 16  4  0
  7 10  3  0
  7 15  2  0
  7 19  1  0
  8 10  4  0
  8 16  1  0
  8 17  4  0
  9 10  3  0
  9 11  1  0
  9 12  4  0
  9 16  3  0
  9 17  4  0
  9 18  1  0
  9 19  3  0
 10 14  2  0
 10 17  4  0
 10 19  3  0
 11 14  1  0
 11 15  1  0
 12 16  4  0
 13 16  4  0
 13 17  4  0
 14 17  3  0
 14 18  2  0
 17 18  2  0
M  END
$$$$

 Created by Python create_sdf_string function

 29  8  0  0  0  0  0  0  0  0999 V2000
   11.1196   -4.4914   20.4026 C   0  0  0  0  0  0  0  0  0  0  0  0
    7.1720   -6.0075   15.4734 C   0  0  0  0  0  0  0  0  0  0  0  0
    9.1866   -4.4984   16.0743 C   0  0  0  0  0  0  0  0  0  0  0  0
    6.4476   -8.8510   15.8677 C   0  0  0  0  0  0  0  0  0  0  0  0
   10.9036   -4.7731   18.9445 C   0  0  0  0  0  0  0  0  0  0  0  0
    8.7224   -6.0950   17.6874 C   0  0  0  0  0  0  0  0  0  0  0  0
    9.8244   -4.5249   16.8050 C   0  0  0  0  0  0  0  0  0  0  0  0
   11.3520   -4.6604   21.6173 C   0  0  0  0  0  0  0  0  0  0  0  0
   13.0168   -4.0481   23.1097 C   0  0  0  0  0  0  0  0  0  0  0  0
   10.5732   -5.6097   19.9972 C   0  0  0  0  0  0  0  0  0  0  0  0
    8.1896   -7.8270   18.0625 C   0  0  0  0  0  0  0  0  0  0  0  0
   12.1896   -4.2936   21.4949 C   0  0  0  0  0  0  0  0  0  0  0  0
    5.8525   -7.3374   16.2005 C   0  0  0  0  0  0  0  0  0  0  0  0
   11.2854   -3.5598   16.7201 C   0  0  0  0  0  0  0  0  0  0  0  0
    8.9139   -6.3490   17.9327 C   0  0  0  0  0  0  0  0  0  0  0  0
    7.6787   -6.7973   17.3229 C   0  0  0  0  0  0  0  0  0  0  0  0
    7.8671   -8.2796   15.1703 C   0  0  0  0  0  0  0  0  0  0  0  0
   11.4041   -4.3466   22.1426 C   0  0  0  0  0  0  0  0  0  0  0  0
   11.9471   -4.6976   23.4129 C   0  0  0  0  0  0  0  0  0  0  0  0
    7.3134   -7.3315   15.5879 C   0  0  0  0  0  0  0  0  0  0  0  0
    7.0604   -8.4992   17.3360 C   0  0  0  0  0  0  0  0  0  0  0  0
   11.7468   -4.2283   24.4168 C   0  0  0  0  0  0  0  0  0  0  0  0
   11.1763   -3.9985   24.6059 C   0  0  0  0  0  0  0  0  0  0  0  0
    6.0441   -7.7837   18.2675 C   0  0  0  0  0  0  0  0  0  0  0  0
    7.4154   -8.2709   16.7053 C   0  0  0  0  0  0  0  0  0  0  0  0
   10.7515   -4.6217   18.5952 C   0  0  0  0  0  0  0  0  0  0  0  0
    9.8711   -4.2890   16.4749 C   0  0  0  0  0  0  0  0  0  0  0  0
   11.5341   -4.1333   17.5706 C   0  0  0  0  0  0  0  0  0  0  0  0
    4.8247   -7.1918   15.8258 O   0  0  0  0  0  0  0  0  0  0  0  0
  2 20  1  0
  3  7  1  0
  6 15  1  0
  8 18  4  0
 13 29  1  0
 17 20  1  0
 19 22  4  0
 22 23  1  0
M  END
$$$$

 Created by Python create_sdf_string function

 29 42  0  0  0  0  0  0  0  0999 V2000
    5.6021   -8.3919   16.6654 O   0  0  0  0  0  0  0  0  0  0  0  0
   10.0033   -4.2705   17.6916 C   0  0  0  0  0  0  0  0  0  0  0  0
    8.4117   -6.4446   18.1876 C   0  0  0  0  0  0  0  0  0  0  0  0
   12.1435   -4.3514   23.5806 C   0  0  0  0  0  0  0  0  0  0  0  0
    7.1017   -7.5672   18.0562 C   0  0  0  0  0  0  0  0  0  0  0  0
   13.0303   -5.5281   21.4562 N   0  0  0  0  0  0  0  0  0  0  0  0
   11.8913   -3.3965   16.9303 C   0  0  0  0  0  0  0  0  0  0  0  0
    7.5671   -7.0247   18.6491 F   0  0  0  0  0  0  0  0  0  0  0  0
   11.5761   -4.2565   22.3985 C   0  0  0  0  0  0  0  0  0  0  0  0
    6.0423   -5.9667   16.7180 P   0  0  0  0  0  0  0  0  0  0  0  0
   13.0273   -4.9527   23.3276 S   0  0  0  0  0  0  0  0  0  0  0  0
   11.4979   -4.0339   24.9262 C   0  0  0  0  0  0  0  0  0  0  0  0
    5.1071   -8.2198   21.0316 C   0  0  0  0  0  0  0  0  0  0  0  0
    6.8969   -9.4551   17.4729 S   0  0  0  0  0  0  0  0  0  0  0  0
    9.5313   -4.3533   15.8821 C   0  0  0  0  0  0  0  0  0  0  0  0
   11.8490   -5.1082   18.3839 C   0  0  0  0  0  0  0  0  0  0  0  0
    4.7658   -8.3677   14.4107 O   0  0  0  0  0  0  0  0  0  0  0  0
   11.1439   -3.9064   20.8895 He  0  0  0  0  0  0  0  0  0  0  0  0
    7.3262   -5.2333   15.7536 He  0  0  0  0  0  0  0  0  0  0  0  0
   10.1065   -5.5058   16.0059 He  0  0  0  0  0  0  0  0  0  0  0  0
    9.5815   -3.7096   17.9945 He  0  0  0  0  0  0  0  0  0  0  0  0
   11.6431   -4.0084   21.3464 He  0  0  0  0  0  0  0  0  0  0  0  0
   12.4605   -6.9663   20.2824 He  0  0  0  0  0  0  0  0  0  0  0  0
    6.0683   -8.1069   16.9892 He  0  0  0  0  0  0  0  0  0  0  0  0
    6.6509   -8.4204   19.3250 He  0  0  0  0  0  0  0  0  0  0  0  0
    7.9821   -8.9789   14.5416 He  0  0  0  0  0  0  0  0  0  0  0  0
   12.2715   -4.5126   23.3041 He  0  0  0  0  0  0  0  0  0  0  0  0
    5.8805   -9.1029   17.2332 He  0  0  0  0  0  0  0  0  0  0  0  0
   10.9922   -4.8606   18.3143 He  0  0  0  0  0  0  0  0  0  0  0  0
  1  2  4  0
  1  4  4  0
  1  6  4  0
  1  8  4  0
  1  9  3  0
  1 11  4  0
  1 12  2  0
  1 14  4  0
  1 17  1  0
  2  4  2  0
  2  5  4  0
  2  6  2  0
  3  4  4  0
  3  6  3  0
  3  7  4  0
  3 11  2  0
  3 12  1  0
  3 13  4  0
  3 15  1  0
  4  9  1  0
  4 10  2  0
  4 14  3  0
  4 17  1  0
  5  7  3  0
  5 10  1  0
  5 11  1  0
  5 14  4  0
  6 14  3  0
  6 16  4  0
  7  8  3  0
  7  9  1  0
  7 14  1  0
  7 16  4  0
  8 11  3  0
  8 14  4  0
  8 17  2  0
 10 13  2  0
 11 12  2  0
 12 13  2  0
 13 14  3  0
 13 16  3  0
 16 17  1  0
M  END
$$$$

 Created by Python create_sdf_string function

 29 16  0  0  0  0  0  0  0  0999 V2000
   10.9890   -4.0845   20.6267 C   0  0  0  0  0  0  0  0  0  0  0  0
    7.9004   -5.8681   15.8006 C   0  0  0  0  0  0  0  0  0  0  0  0
    9.1075   -5.2422   16.4415 C   0  0  0  0  0  0  0  0  0  0  0  0
    5.5580   -8.4936   16.5971 C   0  0  0  0  0  0  0  0  0  0  0  0
   10.1943   -4.5184   17.6825 C   0  0  0  0  0  0  0  0  0  0  0  0
    8.6676   -6.5121   17.7127 C   0  0  0  0  0  0  0  0  0  0  0  0
   10.1038   -4.2722   17.7026 C   0  0  0  0  0  0  0  0  0  0  0  0
   11.6233   -4.4945   21.3286 C   0  0  0  0  0  0  0  0  0  0  0  0
   11.6076   -4.2601   23.7157 C   0  0  0  0  0  0  0  0  0  0  0  0
   11.9502   -5.6274   19.8513 C   0  0  0  0  0  0  0  0  0  0  0  0
    7.2065   -7.5200   17.5267 C   0  0  0  0  0  0  0  0  0  0  0  0
   12.9212   -5.2274   21.3519 C   0  0  0  0  0  0  0  0  0  0  0  0
    6.0179   -8.0206   16.5068 C   0  0  0  0  0  0  0  0  0  0  0  0
   11.4354   -3.8033   17.0298 C   0  0  0  0  0  0  0  0  0  0  0  0
    7.9739   -7.2642   18.1207 C   0  0  0  0  0  0  0  0  0  0  0  0
    6.6295   -8.1722   18.5561 C   0  0  0  0  0  0  0  0  0  0  0  0
    7.6635   -8.4698   15.2744 C   0  0  0  0  0  0  0  0  0  0  0  0
   11.3844   -4.1807   22.6484 C   0  0  0  0  0  0  0  0  0  0  0  0
   12.2839   -4.6996   23.2102 C   0  0  0  0  0  0  0  0  0  0  0  0
    6.9498   -6.9113   16.1160 C   0  0  0  0  0  0  0  0  0  0  0  0
    5.6911   -8.7679   16.9762 C   0  0  0  0  0  0  0  0  0  0  0  0
   12.7232   -4.9221   23.5005 C   0  0  0  0  0  0  0  0  0  0  0  0
   11.6382   -4.1515   24.9788 C   0  0  0  0  0  0  0  0  0  0  0  0
    6.0705   -8.5565   19.2895 O   0  0  0  0  0  0  0  0  0  0  0  0
    6.9576   -8.9708   17.1824 C   0  0  0  0  0  0  0  0  0  0  0  0
   10.8724   -4.7421   18.8251 C   0  0  0  0  0  0  0  0  0  0  0  0
    9.4517   -4.2453   16.0386 C   0  0  0  0  0  0  0  0  0  0  0  0
   12.1072   -5.1292   19.1040 C   0  0  0  0  0  0  0  0  0  0  0  0
    5.3044   -8.5531   15.3015 O   0  0  0  0  0  0  0  0  0  0  0  0
  1  8  4  0
  2 20  1  0
  3 27  4  0
  4 29  1  0
  5  7  4  0
  5 26  4  0
  8 12  4  0
  9 18  1  0
  9 23  1  0
 10 28  4  0
 11 16  1  0
 11 20  1  0
 13 29  1  0
 16 24  1  0
 18 19  4  0
 19 22  4  0
M  END
$$$$

 Created by Python create_sdf_string function

 29 52  0  0  0  0  0  0  0  0999 V2000
   10.7831   -4.4905   20.7939 C   0  0  0  0  0  0  0  0  0  0  0  0
    6.0978   -9.4500   16.1851 C   0  0  0  0  0  0  0  0  0  0  0  0
    9.8303   -4.3767   18.0504 P   0  0  0  0  0  0  0  0  0  0  0  0
    8.5195   -6.9701   18.5378 P   0  0  0  0  0  0  0  0  0  0  0  0
   10.8799   -5.6011   18.3086 C   0  0  0  0  0  0  0  0  0  0  0  0
   13.0848   -5.2408   20.6106 C   0  0  0  0  0  0  0  0  0  0  0  0
   12.6796   -5.2138   21.6449 S   0  0  0  0  0  0  0  0  0  0  0  0
    7.6151   -6.6687   17.3652 C   0  0  0  0  0  0  0  0  0  0  0  0
   11.6988   -3.5337   16.6260 N   0  0  0  0  0  0  0  0  0  0  0  0
   11.3170   -4.7870   22.9820 C   0  0  0  0  0  0  0  0  0  0  0  0
   12.6383   -4.4703   23.0179 S   0  0  0  0  0  0  0  0  0  0  0  0
    4.0208   -9.5570   18.3826 C   0  0  0  0  0  0  0  0  0  0  0  0
   11.8975   -4.5603   24.1569 F   0  0  0  0  0  0  0  0  0  0  0  0
   11.9363   -4.4629   25.0214 C   0  0  0  0  0  0  0  0  0  0  0  0
    6.4141   -8.2685   19.1101 O   0  0  0  0  0  0  0  0  0  0  0  0
    6.6053   -9.1969   17.8792 O   0  0  0  0  0  0  0  0  0  0  0  0
    9.9695   -4.3618   16.4483 C   0  0  0  0  0  0  0  0  0  0  0  0
    4.8667   -9.9261   15.3376 O   0  0  0  0  0  0  0  0  0  0  0  0
    7.2810   -4.0073   15.0327 He  0  0  0  0  0  0  0  0  0  0  0  0
    9.0103   -5.0803   15.2276 He  0  0  0  0  0  0  0  0  0  0  0  0
   11.0146   -3.7382   24.1278 He  0  0  0  0  0  0  0  0  0  0  0  0
   13.2646   -6.0191   22.6093 He  0  0  0  0  0  0  0  0  0  0  0  0
    6.0658   -8.5255   16.7554 He  0  0  0  0  0  0  0  0  0  0  0  0
    8.7339   -7.3372   17.3483 He  0  0  0  0  0  0  0  0  0  0  0  0
    4.2427   -6.6375   18.4139 He  0  0  0  0  0  0  0  0  0  0  0  0
    9.0261   -7.9309   14.6872 He  0  0  0  0  0  0  0  0  0  0  0  0
    7.9995   -6.4421   16.9907 He  0  0  0  0  0  0  0  0  0  0  0  0
   10.8311   -4.6005   18.6381 He  0  0  0  0  0  0  0  0  0  0  0  0
   12.8096   -4.6048   19.4916 He  0  0  0  0  0  0  0  0  0  0  0  0
  1  2  2  0
  1  3  1  0
  1  6  3  0
  1  8  2  0
  1 10  1  0
  1 13  3  0
  1 15  2  0
  2  5  1  0
  2 11  1  0
  2 12  2  0
  2 18  3  0
  3  5  4  0
  3  8  2  0
  3 10  1  0
  3 12  4  0
  3 14  3  0
  3 16  2  0
  3 18  4  0
  4  7  2  0
  4 12  4  0
  4 16  1  0
  5 12  1  0
  5 15  3  0
  5 16  4  0
  6  7  4  0
  6  8  3  0
  6  9  4  0
  6 13  1  0
  6 15  2  0
  6 17  4  0
  6 18  1  0
  7 10  1  0
  7 15  3  0
  7 17  1  0
  8 10  2  0
  8 11  2  0
  8 13  2  0
  8 16  4  0
  9 10  4  0
  9 12  3  0
  9 14  4  0
 10 11  4  0
 10 12  4  0
 11 15  3  0
 12 13  4  0
 12 15  4  0
 12 18  4  0
 13 17  4  0
 14 15  2  0
 14 16  2  0
 16 17  2  0
 17 18  4  0
M  END
$$$$

 Created by Python create_sdf_string function

 29 15  0  0  0  0  0  0  0  0999 V2000
   10.8403   -4.4538   20.8520 C   0  0  0  0  0  0  0  0  0  0  0  0
    7.7426   -5.0313   15.5817 O   0  0  0  0  0  0  0  0  0  0  0  0
    9.6102   -4.6542   16.1865 C   0  0  0  0  0  0  0  0  0  0  0  0
    6.2530   -8.8811   16.0417 C   0  0  0  0  0  0  0  0  0  0  0  0
   10.1058   -4.8925   17.8618 C   0  0  0  0  0  0  0  0  0  0  0  0
    8.7463   -7.3904   18.0470 C   0  0  0  0  0  0  0  0  0  0  0  0
   10.6629   -5.0982   18.5226 C   0  0  0  0  0  0  0  0  0  0  0  0
   12.8339   -5.2172   20.8685 C   0  0  0  0  0  0  0  0  0  0  0  0
   11.0162   -3.8816   24.4124 O   0  0  0  0  0  0  0  0  0  0  0  0
   12.7363   -5.0749   21.3044 C   0  0  0  0  0  0  0  0  0  0  0  0
    7.8233   -7.0007   17.1326 C   0  0  0  0  0  0  0  0  0  0  0  0
   13.1262   -5.1349   22.5631 C   0  0  0  0  0  0  0  0  0  0  0  0
    6.4145   -8.4709   16.4224 C   0  0  0  0  0  0  0  0  0  0  0  0
   11.2682   -3.6282   16.7670 C   0  0  0  0  0  0  0  0  0  0  0  0
    8.6995   -7.5475   17.4948 C   0  0  0  0  0  0  0  0  0  0  0  0
    5.0931   -7.8391   17.8273 C   0  0  0  0  0  0  0  0  0  0  0  0
    8.3043   -7.9606   15.1949 C   0  0  0  0  0  0  0  0  0  0  0  0
   11.3943   -4.3459   22.5463 C   0  0  0  0  0  0  0  0  0  0  0  0
   12.2280   -4.6436   22.8140 C   0  0  0  0  0  0  0  0  0  0  0  0
    8.3167   -6.2928   16.6335 C   0  0  0  0  0  0  0  0  0  0  0  0
    4.5749   -9.3101   17.4637 C   0  0  0  0  0  0  0  0  0  0  0  0
   11.6749   -4.3311   24.4732 C   0  0  0  0  0  0  0  0  0  0  0  0
   11.8209   -4.3086   25.0405 C   0  0  0  0  0  0  0  0  0  0  0  0
    5.9430   -8.3172   18.4645 C   0  0  0  0  0  0  0  0  0  0  0  0
    6.7555   -8.3054   17.5694 C   0  0  0  0  0  0  0  0  0  0  0  0
   11.1634   -4.7102   18.7166 C   0  0  0  0  0  0  0  0  0  0  0  0
   10.0032   -4.4154   16.5250 C   0  0  0  0  0  0  0  0  0  0  0  0
   11.8327   -4.5291   19.4478 C   0  0  0  0  0  0  0  0  0  0  0  0
    4.9847   -9.3706   16.2333 C   0  0  0  0  0  0  0  0  0  0  0  0
  1 18  4  0
  3 27  4  0
  4 13  4  0
  4 29  4  0
  5  7  4  0
  5 26  4  0
  8 10  4  0
  9 22  4  0
 11 20  1  0
 12 19  4  0
 14 27  4  0
 18 19  4  0
 21 24  4  0
 21 29  4  0
 26 28  1  0
M  END
$$$$

 Created by Python create_sdf_string function

 29 54  0  0  0  0  0  0  0  0999 V2000
    8.2953   -4.9611   15.4396 N   0  0  0  0  0  0  0  0  0  0  0  0
   10.1596   -4.2821   16.5742 S   0  0  0  0  0  0  0  0  0  0  0  0
    8.9244   -4.4449   18.6229 F   0  0  0  0  0  0  0  0  0  0  0  0
    9.9880   -7.2928   18.6979 N   0  0  0  0  0  0  0  0  0  0  0  0
   10.1876   -5.5898   18.8608 N   0  0  0  0  0  0  0  0  0  0  0  0
   14.2554   -5.7249   21.1458 C   0  0  0  0  0  0  0  0  0  0  0  0
    8.1531   -8.5352   17.1876 Br  0  0  0  0  0  0  0  0  0  0  0  0
    6.2801   -9.9320   16.9387 Cl  0  0  0  0  0  0  0  0  0  0  0  0
   11.1672   -3.8719   16.9303 C   0  0  0  0  0  0  0  0  0  0  0  0
    8.4919   -6.9599   17.6202 C   0  0  0  0  0  0  0  0  0  0  0  0
    7.4902   -8.2689   14.8013 P   0  0  0  0  0  0  0  0  0  0  0  0
   11.3314   -4.4784   22.6555 C   0  0  0  0  0  0  0  0  0  0  0  0
   10.8035   -2.7300   23.6227 C   0  0  0  0  0  0  0  0  0  0  0  0
    6.6180   -7.5805   18.3279 Cl  0  0  0  0  0  0  0  0  0  0  0  0
    8.5354   -8.9456   17.1209 C   0  0  0  0  0  0  0  0  0  0  0  0
   10.3753   -4.4913   18.7320 C   0  0  0  0  0  0  0  0  0  0  0  0
   10.3107   -4.8084   16.5761 C   0  0  0  0  0  0  0  0  0  0  0  0
   11.0677   -3.3180   20.4206 He  0  0  0  0  0  0  0  0  0  0  0  0
    6.1332  -10.8224   15.9976 He  0  0  0  0  0  0  0  0  0  0  0  0
   11.9602   -4.3687   24.1234 He  0  0  0  0  0  0  0  0  0  0  0  0
   12.3418   -5.2726   19.8545 He  0  0  0  0  0  0  0  0  0  0  0  0
   13.3109   -4.0517   23.8565 He  0  0  0  0  0  0  0  0  0  0  0  0
    4.7107   -7.1470   16.8250 He  0  0  0  0  0  0  0  0  0  0  0  0
   12.3259   -4.4565   22.7034 He  0  0  0  0  0  0  0  0  0  0  0  0
    8.1414   -7.0398   16.5180 He  0  0  0  0  0  0  0  0  0  0  0  0
    4.0896   -9.8419   16.7516 He  0  0  0  0  0  0  0  0  0  0  0  0
   12.1203   -3.9814   24.8048 He  0  0  0  0  0  0  0  0  0  0  0  0
   12.1690   -4.4159   17.8879 He  0  0  0  0  0  0  0  0  0  0  0  0
    4.1542   -9.2089   16.8162 He  0  0  0  0  0  0  0  0  0  0  0  0
  1  2  3  0
  1  3  3  0
  1  5  4  0
  1 10  1  0
  1 11  1  0
  1 12  4  0
  1 14  3  0
  2  3  2  0
  2  6  1  0
  2  9  4  0
  2 15  1  0
  3  7  3  0
  3  8  1  0
  3 13  3  0
  3 14  4  0
  3 15  3  0
  4  6  1  0
  4  7  4  0
  4 11  2  0
  4 12  1  0
  4 14  4  0
  4 15  3  0
  4 16  2  0
  4 17  1  0
  5 11  2  0
  5 12  4  0
  6  7  2  0
  6 11  1  0
  6 13  3  0
  6 16  3  0
  7  8  3  0
  7 11  2  0
  7 13  4  0
  7 15  3  0
  7 16  2  0
  8 10  4  0
  8 11  1  0
  8 14  1  0
  8 15  2  0
  8 16  3  0
  9 11  3  0
  9 12  3  0
  9 14  1  0
  9 15  2  0
  9 16  1  0
  9 17  4  0
 10 13  1  0
 10 17  3  0
 11 12  3  0
 11 13  2  0
 12 14  2  0
 14 16  4  0
 15 16  1  0
 16 17  2  0
M  END
$$$$

 Created by Python create_sdf_string function

 29  9  0  0  0  0  0  0  0  0999 V2000
   10.8488   -4.0891   20.7190 C   0  0  0  0  0  0  0  0  0  0  0  0
    8.5167   -5.2878   16.0013 O   0  0  0  0  0  0  0  0  0  0  0  0
   10.1721   -4.0455   16.3968 C   0  0  0  0  0  0  0  0  0  0  0  0
    5.9518  -10.0127   16.2055 C   0  0  0  0  0  0  0  0  0  0  0  0
    9.5219   -4.8782   18.6959 C   0  0  0  0  0  0  0  0  0  0  0  0
    9.5926   -7.2213   18.5556 C   0  0  0  0  0  0  0  0  0  0  0  0
   10.4518   -5.1250   19.2079 C   0  0  0  0  0  0  0  0  0  0  0  0
   13.0574   -5.2046   21.2434 C   0  0  0  0  0  0  0  0  0  0  0  0
   11.9470   -4.0085   24.2396 C   0  0  0  0  0  0  0  0  0  0  0  0
   12.4756   -5.2352   20.2003 C   0  0  0  0  0  0  0  0  0  0  0  0
    8.0859   -8.2195   17.1256 C   0  0  0  0  0  0  0  0  0  0  0  0
   13.0118   -4.5659   23.5415 C   0  0  0  0  0  0  0  0  0  0  0  0
    6.0915   -9.2620   16.6420 C   0  0  0  0  0  0  0  0  0  0  0  0
   10.9579   -3.8124   16.8093 C   0  0  0  0  0  0  0  0  0  0  0  0
    8.5814   -6.7562   17.3521 C   0  0  0  0  0  0  0  0  0  0  0  0
    5.0980   -7.9860   16.9670 C   0  0  0  0  0  0  0  0  0  0  0  0
    7.3522   -8.3747   15.8116 C   0  0  0  0  0  0  0  0  0  0  0  0
   11.2990   -4.1803   22.0983 C   0  0  0  0  0  0  0  0  0  0  0  0
   12.1473   -4.4810   22.3537 C   0  0  0  0  0  0  0  0  0  0  0  0
    8.2169   -6.9542   16.5623 C   0  0  0  0  0  0  0  0  0  0  0  0
    4.3577   -9.2276   16.9301 C   0  0  0  0  0  0  0  0  0  0  0  0
   10.7639   -3.3205   23.7771 C   0  0  0  0  0  0  0  0  0  0  0  0
   11.8956   -3.8825   24.9141 C   0  0  0  0  0  0  0  0  0  0  0  0
    6.7691   -7.6882   17.8064 C   0  0  0  0  0  0  0  0  0  0  0  0
    8.3568   -8.2700   17.2203 C   0  0  0  0  0  0  0  0  0  0  0  0
   10.7184   -4.6554   18.8559 C   0  0  0  0  0  0  0  0  0  0  0  0
    9.9850   -4.5687   16.7379 C   0  0  0  0  0  0  0  0  0  0  0  0
   11.6861   -4.2562   18.0336 C   0  0  0  0  0  0  0  0  0  0  0  0
    4.3722   -8.9819   16.8926 C   0  0  0  0  0  0  0  0  0  0  0  0
  1 18  4  0
  3 14  4  0
  4 13  4  0
  8 10  4  0
  8 19  4  0
  9 23  1  0
 11 25  1  0
 18 19  4  0
 21 29  4  0
M  END
$$$$

 Created by Python create_sdf_string function

 29 47  0  0  0  0  0  0  0  0999 V2000
    6.2218  -10.1182   15.8986 Cl  0  0  0  0  0  0  0  0  0  0  0  0
   10.5216   -4.6584   18.8816 O   0  0  0  0  0  0  0  0  0  0  0  0
   10.2387   -7.7426   19.7851 C   0  0  0  0  0  0  0  0  0  0  0  0
   13.2648   -6.6230   20.8014 C   0  0  0  0  0  0  0  0  0  0  0  0
   13.1378   -2.9144   25.1411 C   0  0  0  0  0  0  0  0  0  0  0  0
    7.9338   -8.3078   15.5962 C   0  0  0  0  0  0  0  0  0  0  0  0
   12.5748   -4.4452   23.4209 P   0  0  0  0  0  0  0  0  0  0  0  0
    6.0661   -9.3748   16.0036 C   0  0  0  0  0  0  0  0  0  0  0  0
   10.9336   -3.7975   17.0200 C   0  0  0  0  0  0  0  0  0  0  0  0
    9.0633   -6.9926   15.8794 F   0  0  0  0  0  0  0  0  0  0  0  0
   11.1891   -3.9683   21.9013 C   0  0  0  0  0  0  0  0  0  0  0  0
   12.0360   -4.3962   22.3012 C   0  0  0  0  0  0  0  0  0  0  0  0
    9.1564   -6.1839   15.6104 C   0  0  0  0  0  0  0  0  0  0  0  0
   10.1712   -2.7561   23.3259 C   0  0  0  0  0  0  0  0  0  0  0  0
   12.3988   -3.9878   24.6486 C   0  0  0  0  0  0  0  0  0  0  0  0
   11.2004   -4.7478   18.5631 C   0  0  0  0  0  0  0  0  0  0  0  0
    9.8847   -4.6706   16.6359 C   0  0  0  0  0  0  0  0  0  0  0  0
   11.5502   -3.7632   18.1896 N   0  0  0  0  0  0  0  0  0  0  0  0
    5.7814  -10.8963   15.9850 F   0  0  0  0  0  0  0  0  0  0  0  0
   10.0195   -5.6582   21.4593 He  0  0  0  0  0  0  0  0  0  0  0  0
    8.2490   -4.3057   15.7579 He  0  0  0  0  0  0  0  0  0  0  0  0
    9.2765   -2.8275   16.0031 He  0  0  0  0  0  0  0  0  0  0  0  0
    9.5895   -4.3533   19.3109 He  0  0  0  0  0  0  0  0  0  0  0  0
   12.1278   -4.7388   21.1827 He  0  0  0  0  0  0  0  0  0  0  0  0
    4.8382   -8.9562   15.8048 He  0  0  0  0  0  0  0  0  0  0  0  0
    7.7188   -7.7568   16.4935 He  0  0  0  0  0  0  0  0  0  0  0  0
    4.6608   -8.5642   16.5684 He  0  0  0  0  0  0  0  0  0  0  0  0
    7.2484   -9.0203   18.9216 He  0  0  0  0  0  0  0  0  0  0  0  0
    8.8783   -8.0146   18.1596 He  0  0  0  0  0  0  0  0  0  0  0  0
  1  5  4  0
  1  9  2  0
  2  6  1  0
  2  7  2  0
  2 15  4  0
  3  4  3  0
  3  5  2  0
  3 11  1  0
  3 12  1  0
  3 17  2  0
  4  5  3  0
  4  7  1  0
  4 11  2  0
  4 12  4  0
  4 13  1  0
  4 18  2  0
  5  8  1  0
  5  9  3  0
  5 11  4  0
  5 13  2  0
  5 15  1  0
  5 18  2  0
  6 13  1  0
  6 14  3  0
  6 18  1  0
  7 11  3  0
  8 10  2  0
  8 12  1  0
  8 16  4  0
  8 18  2  0
  9 10  4  0
  9 11  2  0
  9 13  4  0
  9 18  2  0
  9 19  2  0
 10 11  4  0
 10 16  3  0
 10 17  4  0
 10 19  3  0
 11 12  1  0
 12 18  4  0
 12 19  3  0
 13 17  2  0
 13 19  3  0
 14 15  4  0
 14 18  1  0
 14 19  1  0
M  END
$$$$

 Created by Python create_sdf_string function

 29 16  0  0  0  0  0  0  0  0999 V2000
   10.8118   -4.8115   20.9648 C   0  0  0  0  0  0  0  0  0  0  0  0
    8.6716   -4.7086   15.9786 C   0  0  0  0  0  0  0  0  0  0  0  0
   10.0618   -3.5789   16.0117 N   0  0  0  0  0  0  0  0  0  0  0  0
    6.0478   -9.7241   16.0072 C   0  0  0  0  0  0  0  0  0  0  0  0
   10.3223   -4.9076   18.8197 C   0  0  0  0  0  0  0  0  0  0  0  0
    9.9539   -7.4724   18.9289 C   0  0  0  0  0  0  0  0  0  0  0  0
   10.2534   -4.8012   18.9307 C   0  0  0  0  0  0  0  0  0  0  0  0
   12.8514   -5.1523   21.2063 C   0  0  0  0  0  0  0  0  0  0  0  0
   12.3873   -3.4371   25.0398 C   0  0  0  0  0  0  0  0  0  0  0  0
   12.4620   -4.8863   21.1451 C   0  0  0  0  0  0  0  0  0  0  0  0
    7.8847   -8.0287   15.6939 C   0  0  0  0  0  0  0  0  0  0  0  0
   12.8860   -4.4945   23.4465 C   0  0  0  0  0  0  0  0  0  0  0  0
    6.3737   -9.0707   16.0485 C   0  0  0  0  0  0  0  0  0  0  0  0
   10.7171   -3.6567   16.8870 C   0  0  0  0  0  0  0  0  0  0  0  0
    8.6941   -6.4946   16.3302 C   0  0  0  0  0  0  0  0  0  0  0  0
    4.9486   -8.8505   16.3175 C   0  0  0  0  0  0  0  0  0  0  0  0
    7.6239   -7.9316   16.7086 C   0  0  0  0  0  0  0  0  0  0  0  0
   10.9448   -3.9717   22.0699 C   0  0  0  0  0  0  0  0  0  0  0  0
   12.1381   -4.4633   22.2623 C   0  0  0  0  0  0  0  0  0  0  0  0
    8.7915   -6.3134   16.3298 C   0  0  0  0  0  0  0  0  0  0  0  0
    4.9644   -8.6760   16.9215 C   0  0  0  0  0  0  0  0  0  0  0  0
   10.7385   -3.2460   23.5908 C   0  0  0  0  0  0  0  0  0  0  0  0
   12.1013   -3.7054   24.2223 C   0  0  0  0  0  0  0  0  0  0  0  0
    6.9075   -8.3809   17.9333 C   0  0  0  0  0  0  0  0  0  0  0  0
    8.8627   -7.8493   18.1523 C   0  0  0  0  0  0  0  0  0  0  0  0
   10.7984   -4.9677   18.9363 C   0  0  0  0  0  0  0  0  0  0  0  0
    9.2024   -5.3015   16.5385 C   0  0  0  0  0  0  0  0  0  0  0  0
   11.3529   -3.7496   17.9077 N   0  0  0  0  0  0  0  0  0  0  0  0
    5.9200  -10.4186   16.0830 O   0  0  0  0  0  0  0  0  0  0  0  0
  3 14  4  0
  4 13  1  0
  4 16  1  0
  4 29  1  0
  5  7  4  0
  6 25  4  0
  7 26  1  0
  8 10  4  0
  8 19  4  0
  9 23  1  0
 12 23  4  0
 14 28  4  0
 15 27  4  0
 16 21  1  0
 17 24  1  0
 22 23  4  0
M  END
$$$$

 Created by Python create_sdf_string function

 29 80  0  0  0  0  0  0  0  0999 V2000
    8.5261   -5.3504   16.0146 F   0  0  0  0  0  0  0  0  0  0  0  0
    4.9731  -10.1181   15.0282 C   0  0  0  0  0  0  0  0  0  0  0  0
   11.3164   -5.0190   18.7104 Cl  0  0  0  0  0  0  0  0  0  0  0  0
    9.8211   -7.4324   17.9137 F   0  0  0  0  0  0  0  0  0  0  0  0
   10.9763   -4.2816   17.9538 C   0  0  0  0  0  0  0  0  0  0  0  0
   13.6111   -3.9476   22.1857 C   0  0  0  0  0  0  0  0  0  0  0  0
   12.6814   -3.0108   24.4258 F   0  0  0  0  0  0  0  0  0  0  0  0
    7.4365   -7.4842   15.9097 F   0  0  0  0  0  0  0  0  0  0  0  0
   12.4227   -3.8516   23.0573 C   0  0  0  0  0  0  0  0  0  0  0  0
    7.1537   -9.1181   16.2206 C   0  0  0  0  0  0  0  0  0  0  0  0
   10.7266   -3.1624   16.6234 C   0  0  0  0  0  0  0  0  0  0  0  0
   10.0218   -6.2424   17.2052 C   0  0  0  0  0  0  0  0  0  0  0  0
    5.1565   -9.5821   15.8561 C   0  0  0  0  0  0  0  0  0  0  0  0
   11.2634   -4.0097   21.8002 P   0  0  0  0  0  0  0  0  0  0  0  0
   12.3109   -4.8975   22.0819 C   0  0  0  0  0  0  0  0  0  0  0  0
    4.9016  -10.0864   16.6797 N   0  0  0  0  0  0  0  0  0  0  0  0
   11.0780   -3.6356   23.6644 N   0  0  0  0  0  0  0  0  0  0  0  0
   12.3938   -3.4317   23.9818 S   0  0  0  0  0  0  0  0  0  0  0  0
    7.0649   -9.2724   17.9758 Cl  0  0  0  0  0  0  0  0  0  0  0  0
   11.0058   -5.0819   18.7651 C   0  0  0  0  0  0  0  0  0  0  0  0
    8.9735   -5.5548   16.0921 C   0  0  0  0  0  0  0  0  0  0  0  0
   10.8571   -3.4112   17.4110 O   0  0  0  0  0  0  0  0  0  0  0  0
    9.8726   -6.2135   20.1592 He  0  0  0  0  0  0  0  0  0  0  0  0
    9.4290   -4.7374   16.5165 He  0  0  0  0  0  0  0  0  0  0  0  0
   11.4374   -4.3451   20.1839 He  0  0  0  0  0  0  0  0  0  0  0  0
    8.8325   -7.0696   16.8228 He  0  0  0  0  0  0  0  0  0  0  0  0
    7.5614   -7.8099   16.1119 He  0  0  0  0  0  0  0  0  0  0  0  0
    7.8441   -7.4593   18.1934 He  0  0  0  0  0  0  0  0  0  0  0  0
    6.9175  -10.3438   15.7732 He  0  0  0  0  0  0  0  0  0  0  0  0
  1 12  3  0
  1 16  2  0
  1 21  3  0
  2  3  4  0
  2  8  2  0
  2 10  2  0
  2 13  1  0
  2 15  3  0
  2 19  2  0
  3  4  1  0
  3  8  1  0
  3  9  2  0
  3 14  2  0
  3 15  3  0
  3 19  2  0
  4 14  2  0
  4 17  1  0
  4 18  3  0
  4 19  1  0
  5  7  3  0
  5  8  2  0
  5 11  4  0
  5 12  1  0
  5 13  4  0
  5 16  1  0
  5 18  4  0
  5 20  2  0
  5 22  3  0
  6  7  2  0
  6  8  3  0
  6  9  2  0
  6 10  4  0
  6 15  3  0
  6 19  1  0
  6 21  3  0
  6 22  4  0
  7  8  4  0
  7 11  3  0
  7 14  3  0
  7 15  3  0
  7 20  3  0
  8 10  3  0
  8 12  1  0
  8 13  2  0
  8 14  3  0
  8 17  2  0
  8 18  4  0
  8 20  3  0
  9 11  3  0
  9 15  4  0
  9 18  2  0
 10 15  1  0
 10 16  4  0
 10 19  4  0
 10 20  1  0
 10 21  2  0
 11 12  3  0
 11 13  3  0
 11 15  3  0
 11 16  4  0
 11 19  3  0
 11 22  1  0
 12 13  3  0
 12 14  1  0
 12 17  3  0
 12 19  1  0
 12 20  2  0
 12 21  1  0
 13 16  1  0
 13 18  3  0
 13 21  4  0
 14 17  3  0
 14 21  3  0
 15 17  1  0
 15 20  1  0
 16 17  1  0
 16 20  1  0
 16 22  4  0
 17 18  4  0
 17 22  3  0
M  END
$$$$

 Created by Python create_sdf_string function

 29 21  0  0  0  0  0  0  0  0999 V2000
   10.5355   -6.1525   19.8712 O   0  0  0  0  0  0  0  0  0  0  0  0
    8.2831   -5.0112   15.8196 O   0  0  0  0  0  0  0  0  0  0  0  0
    9.5510   -4.3972   16.2940 C   0  0  0  0  0  0  0  0  0  0  0  0
    5.2605   -9.8399   15.3443 C   0  0  0  0  0  0  0  0  0  0  0  0
   11.3193   -4.4345   19.2531 C   0  0  0  0  0  0  0  0  0  0  0  0
    9.6663   -7.4291   18.3334 C   0  0  0  0  0  0  0  0  0  0  0  0
   11.0249   -4.3450   18.2913 C   0  0  0  0  0  0  0  0  0  0  0  0
   13.1418   -4.0913   22.4173 C   0  0  0  0  0  0  0  0  0  0  0  0
   12.4532   -3.1672   24.7822 C   0  0  0  0  0  0  0  0  0  0  0  0
   11.5687   -4.3327   20.5154 C   0  0  0  0  0  0  0  0  0  0  0  0
    7.7684   -7.9140   15.7815 C   0  0  0  0  0  0  0  0  0  0  0  0
   12.4215   -4.0500   22.8067 C   0  0  0  0  0  0  0  0  0  0  0  0
    6.5625   -8.9919   16.6296 C   0  0  0  0  0  0  0  0  0  0  0  0
   10.9436   -3.5324   16.8541 C   0  0  0  0  0  0  0  0  0  0  0  0
    9.7637   -5.9758   17.5913 C   0  0  0  0  0  0  0  0  0  0  0  0
    4.8004   -9.6623   16.1992 C   0  0  0  0  0  0  0  0  0  0  0  0
    8.5316   -6.9661   16.6400 C   0  0  0  0  0  0  0  0  0  0  0  0
   11.0135   -3.9669   21.7291 C   0  0  0  0  0  0  0  0  0  0  0  0
   12.3148   -4.4366   22.1051 C   0  0  0  0  0  0  0  0  0  0  0  0
    7.8622   -7.6384   16.4879 C   0  0  0  0  0  0  0  0  0  0  0  0
    4.9533   -9.6862   17.1008 N   0  0  0  0  0  0  0  0  0  0  0  0
   11.0347   -3.4757   23.7880 C   0  0  0  0  0  0  0  0  0  0  0  0
   12.0490   -3.4620   24.0883 C   0  0  0  0  0  0  0  0  0  0  0  0
    6.9018   -8.5738   17.5098 C   0  0  0  0  0  0  0  0  0  0  0  0
    7.9679   -7.9224   18.2440 C   0  0  0  0  0  0  0  0  0  0  0  0
   10.6964   -5.2637   18.9038 C   0  0  0  0  0  0  0  0  0  0  0  0
    9.0960   -5.3511   16.4353 C   0  0  0  0  0  0  0  0  0  0  0  0
   11.2832   -2.9488   17.0639 O   0  0  0  0  0  0  0  0  0  0  0  0
    6.5405   -9.3922   15.2848 C   0  0  0  0  0  0  0  0  0  0  0  0
  1 26  4  0
  2 27  2  0
  3 27  1  0
  4 16  4  0
  4 29  4  0
  5 10  4  0
  8 12  4  0
  8 19  4  0
  9 23  1  0
 10 18  4  0
 11 17  4  0
 11 29  4  0
 12 19  4  0
 13 21  4  0
 13 24  4  0
 14 28  1  0
 15 27  1  0
 16 21  4  0
 17 20  4  0
 22 23  4  0
 24 25  4  0
M  END
$$$$

 Created by Python create_sdf_string function

 29 80  0  0  0  0  0  0  0  0999 V2000
   10.7735   -7.8075   20.8060 N   0  0  0  0  0  0  0  0  0  0  0  0
    8.1061   -5.0588   14.3615 P   0  0  0  0  0  0  0  0  0  0  0  0
    9.1638   -5.6225   16.4258 N   0  0  0  0  0  0  0  0  0  0  0  0
   11.7694   -5.7807   20.4434 C   0  0  0  0  0  0  0  0  0  0  0  0
    8.6231   -7.4706   18.7686 C   0  0  0  0  0  0  0  0  0  0  0  0
   10.2819   -3.2757   18.1795 F   0  0  0  0  0  0  0  0  0  0  0  0
   12.3344   -2.1700   24.7940 F   0  0  0  0  0  0  0  0  0  0  0  0
   12.6092   -5.1021   19.5044 S   0  0  0  0  0  0  0  0  0  0  0  0
    5.8828   -8.1131   15.1532 C   0  0  0  0  0  0  0  0  0  0  0  0
   12.9513   -4.2043   22.7171 F   0  0  0  0  0  0  0  0  0  0  0  0
    6.7290   -9.4349   16.4629 S   0  0  0  0  0  0  0  0  0  0  0  0
   10.6664   -2.9803   16.6800 C   0  0  0  0  0  0  0  0  0  0  0  0
    9.1714   -6.3738   16.6886 C   0  0  0  0  0  0  0  0  0  0  0  0
   11.1586   -3.8675   21.7181 C   0  0  0  0  0  0  0  0  0  0  0  0
   12.0256   -4.6494   22.6424 C   0  0  0  0  0  0  0  0  0  0  0  0
    5.1512   -9.4295   16.1884 F   0  0  0  0  0  0  0  0  0  0  0  0
   10.6613   -4.7475   23.8731 F   0  0  0  0  0  0  0  0  0  0  0  0
   12.0194   -3.1858   23.9907 C   0  0  0  0  0  0  0  0  0  0  0  0
    7.0739   -8.6483   17.7524 C   0  0  0  0  0  0  0  0  0  0  0  0
   10.6047   -5.9012   18.6001 S   0  0  0  0  0  0  0  0  0  0  0  0
    9.3227   -5.4527   16.2314 C   0  0  0  0  0  0  0  0  0  0  0  0
   10.6502   -3.3820   16.7545 N   0  0  0  0  0  0  0  0  0  0  0  0
    6.1558   -7.3779   15.1863 O   0  0  0  0  0  0  0  0  0  0  0  0
    6.2887  -10.0778   14.9585 He  0  0  0  0  0  0  0  0  0  0  0  0
   12.9142   -3.8375   21.4943 He  0  0  0  0  0  0  0  0  0  0  0  0
    4.0333   -9.4905   16.7163 He  0  0  0  0  0  0  0  0  0  0  0  0
    8.7147   -6.2798   17.1682 He  0  0  0  0  0  0  0  0  0  0  0  0
    8.2613   -8.2159   15.3647 He  0  0  0  0  0  0  0  0  0  0  0  0
    8.5644   -6.6944   18.3461 He  0  0  0  0  0  0  0  0  0  0  0  0
  1  7  4  0
  1 11  2  0
  1 13  2  0
  1 18  3  0
  1 20  1  0
  1 22  3  0
  1 23  2  0
  2  7  1  0
  2 13  3  0
  2 14  4  0
  2 17  3  0
  2 20  1  0
  2 22  1  0
  3 10  4  0
  3 11  4  0
  3 16  4  0
  3 17  3  0
  3 20  1  0
  4  9  2  0
  4 12  4  0
  4 14  2  0
  4 16  4  0
  4 20  2  0
  5  9  4  0
  5 10  1  0
  5 12  2  0
  5 14  4  0
  5 16  4  0
  5 21  2  0
  5 22  4  0
  5 23  2  0
  6  9  1  0
  6 13  4  0
  6 14  3  0
  6 17  2  0
  6 19  2  0
  6 21  2  0
  7 10  2  0
  7 13  2  0
  7 15  1  0
  7 16  4  0
  7 18  1  0
  7 19  1  0
  7 23  1  0
  8 10  2  0
  8 14  3  0
  8 18  4  0
  8 21  4  0
  8 22  3  0
  8 23  4  0
  9 10  4  0
  9 13  3  0
  9 14  2  0
  9 17  1  0
  9 21  4  0
 10 17  1  0
 10 20  3  0
 10 22  4  0
 11 13  2  0
 11 15  4  0
 11 16  4  0
 11 20  3  0
 12 22  4  0
 13 15  2  0
 13 19  3  0
 13 21  4  0
 15 16  2  0
 15 17  1  0
 15 18  3  0
 15 19  1  0
 15 22  4  0
 16 17  2  0
 16 18  3  0
 16 19  3  0
 16 20  3  0
 17 19  3  0
 17 20  3  0
 18 23  4  0
 19 22  4  0
 20 22  1  0
M  END
$$$$

 Created by Python create_sdf_string function

 29 16  0  0  0  0  0  0  0  0999 V2000
   10.3440   -6.5739   19.8818 C   0  0  0  0  0  0  0  0  0  0  0  0
    7.7638   -5.1799   15.2772 O   0  0  0  0  0  0  0  0  0  0  0  0
    9.3793   -5.3461   16.9093 N   0  0  0  0  0  0  0  0  0  0  0  0
    6.2022   -9.2864   15.3596 C   0  0  0  0  0  0  0  0  0  0  0  0
   11.4540   -4.7715   20.4609 C   0  0  0  0  0  0  0  0  0  0  0  0
    8.9299   -7.7677   18.2847 C   0  0  0  0  0  0  0  0  0  0  0  0
   10.9817   -3.9231   18.1680 C   0  0  0  0  0  0  0  0  0  0  0  0
   12.3968   -4.0504   21.7035 C   0  0  0  0  0  0  0  0  0  0  0  0
   12.2305   -2.6838   24.5820 O   0  0  0  0  0  0  0  0  0  0  0  0
   12.0752   -4.9341   20.0394 C   0  0  0  0  0  0  0  0  0  0  0  0
    5.5040   -8.6983   15.7167 C   0  0  0  0  0  0  0  0  0  0  0  0
   12.6294   -4.0691   22.6893 C   0  0  0  0  0  0  0  0  0  0  0  0
    6.4126   -8.9584   16.6623 C   0  0  0  0  0  0  0  0  0  0  0  0
   10.8764   -3.4874   16.8834 C   0  0  0  0  0  0  0  0  0  0  0  0
    8.8961   -5.9062   16.6906 C   0  0  0  0  0  0  0  0  0  0  0  0
    4.2787   -9.0762   16.8979 C   0  0  0  0  0  0  0  0  0  0  0  0
    8.6456   -6.8405   17.2612 C   0  0  0  0  0  0  0  0  0  0  0  0
   10.9875   -4.1935   21.5014 C   0  0  0  0  0  0  0  0  0  0  0  0
   11.8774   -4.3009   22.9316 C   0  0  0  0  0  0  0  0  0  0  0  0
    7.9276   -8.0445   15.4612 C   0  0  0  0  0  0  0  0  0  0  0  0
    4.8898   -9.0015   16.7324 C   0  0  0  0  0  0  0  0  0  0  0  0
   11.1015   -4.2741   24.0238 C   0  0  0  0  0  0  0  0  0  0  0  0
   12.0497   -3.2642   23.8983 C   0  0  0  0  0  0  0  0  0  0  0  0
    6.8202   -8.3880   17.6122 C   0  0  0  0  0  0  0  0  0  0  0  0
    9.1636   -6.7800   18.1349 C   0  0  0  0  0  0  0  0  0  0  0  0
   10.3115   -5.6504   18.8610 C   0  0  0  0  0  0  0  0  0  0  0  0
    9.2017   -4.9965   16.3686 C   0  0  0  0  0  0  0  0  0  0  0  0
   10.5342   -3.5572   16.4775 N   0  0  0  0  0  0  0  0  0  0  0  0
    6.6522   -7.9944   15.6551 C   0  0  0  0  0  0  0  0  0  0  0  0
  1 26  1  0
  2 27  2  0
  3 15  4  0
  3 27  4  0
  4 29  4  0
  5 10  4  0
  5 18  4  0
  7 14  4  0
  9 23  1  0
 13 24  4  0
 14 28  4  0
 15 27  4  0
 16 21  4  0
 19 22  1  0
 20 29  4  0
 25 26  4  0
M  END
$$$$

 Created by Python create_sdf_string function

 29 31  0  0  0  0  0  0  0  0999 V2000
    9.9068   -6.5263   19.4741 C   0  0  0  0  0  0  0  0  0  0  0  0
    7.7635   -4.8127   15.3672 Br  0  0  0  0  0  0  0  0  0  0  0  0
   12.0425   -5.9412   20.1333 Cl  0  0  0  0  0  0  0  0  0  0  0  0
   11.8408   -5.0569   20.2410 N   0  0  0  0  0  0  0  0  0  0  0  0
    5.3280   -9.3114   15.6535 Br  0  0  0  0  0  0  0  0  0  0  0  0
   10.6403   -3.2976   16.8925 C   0  0  0  0  0  0  0  0  0  0  0  0
   11.0111   -3.9734   21.9839 C   0  0  0  0  0  0  0  0  0  0  0  0
   11.6305   -4.3401   22.5548 C   0  0  0  0  0  0  0  0  0  0  0  0
    6.6164   -6.2059   13.7752 C   0  0  0  0  0  0  0  0  0  0  0  0
    4.3454   -7.8052   14.9622 F   0  0  0  0  0  0  0  0  0  0  0  0
   11.4512   -2.9599   23.7707 N   0  0  0  0  0  0  0  0  0  0  0  0
   11.9947   -3.0606   23.9598 C   0  0  0  0  0  0  0  0  0  0  0  0
    7.5604   -8.1601   17.3888 O   0  0  0  0  0  0  0  0  0  0  0  0
    9.9184   -5.6973   18.7590 C   0  0  0  0  0  0  0  0  0  0  0  0
    8.7952   -4.5905   16.6682 C   0  0  0  0  0  0  0  0  0  0  0  0
   10.0461   -3.0796   17.5739 N   0  0  0  0  0  0  0  0  0  0  0  0
    8.7326   -5.2486   17.7374 He  0  0  0  0  0  0  0  0  0  0  0  0
    6.0915  -10.1157   14.8812 He  0  0  0  0  0  0  0  0  0  0  0  0
    9.8217   -7.8449   17.1726 He  0  0  0  0  0  0  0  0  0  0  0  0
   11.2353   -3.4021   17.1863 He  0  0  0  0  0  0  0  0  0  0  0  0
   12.6240   -3.2271   24.4526 He  0  0  0  0  0  0  0  0  0  0  0  0
   11.0225   -4.0802   20.0188 He  0  0  0  0  0  0  0  0  0  0  0  0
   13.4687   -3.9361   22.5230 He  0  0  0  0  0  0  0  0  0  0  0  0
    6.3224   -8.2883   18.1320 He  0  0  0  0  0  0  0  0  0  0  0  0
    8.9740   -5.5829   16.1928 He  0  0  0  0  0  0  0  0  0  0  0  0
    5.0366   -8.1021   16.3279 He  0  0  0  0  0  0  0  0  0  0  0  0
    8.3346   -6.3074   17.9443 He  0  0  0  0  0  0  0  0  0  0  0  0
    9.8370   -7.2152   18.1780 He  0  0  0  0  0  0  0  0  0  0  0  0
    7.1253   -7.8511   15.5347 He  0  0  0  0  0  0  0  0  0  0  0  0
  1  6  1  0
  1 11  1  0
  1 12  4  0
  1 14  1  0
  2  4  2  0
  2  7  1  0
  2 15  2  0
  3  7  1  0
  3 10  4  0
  3 11  4  0
  3 16  3  0
  4  9  4  0
  4 13  1  0
  4 16  3  0
  5  6  3  0
  5  7  2  0
  5  9  3  0
  5 12  4  0
  6  9  2  0
  6 13  4  0
  6 16  2  0
  7 10  4  0
  9 10  2  0
  9 11  2  0
  9 12  4  0
 10 11  2  0
 11 12  2  0
 11 13  3  0
 12 13  3  0
 12 16  4  0
 13 14  1  0
M  END
$$$$

 Created by Python create_sdf_string function

 29 18  0  0  0  0  0  0  0  0999 V2000
   10.1687   -6.2455   19.0852 C   0  0  0  0  0  0  0  0  0  0  0  0
    8.0268   -4.9761   15.6706 O   0  0  0  0  0  0  0  0  0  0  0  0
    9.3617   -5.5995   17.7414 C   0  0  0  0  0  0  0  0  0  0  0  0
    6.1965   -9.5990   15.2378 O   0  0  0  0  0  0  0  0  0  0  0  0
   11.7677   -4.8680   20.4593 C   0  0  0  0  0  0  0  0  0  0  0  0
    9.2862   -8.0510   17.8451 C   0  0  0  0  0  0  0  0  0  0  0  0
   10.9189   -3.5477   17.9959 C   0  0  0  0  0  0  0  0  0  0  0  0
   12.0276   -5.0432   20.9538 C   0  0  0  0  0  0  0  0  0  0  0  0
   12.4252   -3.1760   24.6061 O   0  0  0  0  0  0  0  0  0  0  0  0
   11.1940   -3.9230   19.6932 C   0  0  0  0  0  0  0  0  0  0  0  0
    5.3312   -8.9379   15.8739 C   0  0  0  0  0  0  0  0  0  0  0  0
   12.9059   -4.0979   22.7302 C   0  0  0  0  0  0  0  0  0  0  0  0
    6.5817   -8.2159   17.8477 C   0  0  0  0  0  0  0  0  0  0  0  0
   10.7765   -3.5699   16.9478 C   0  0  0  0  0  0  0  0  0  0  0  0
    8.9231   -5.3110   16.5051 C   0  0  0  0  0  0  0  0  0  0  0  0
    5.0887   -8.3911   16.4872 C   0  0  0  0  0  0  0  0  0  0  0  0
    8.1588   -6.7487   17.4971 C   0  0  0  0  0  0  0  0  0  0  0  0
   11.0661   -3.9685   21.7195 C   0  0  0  0  0  0  0  0  0  0  0  0
   11.6789   -4.1761   22.4602 C   0  0  0  0  0  0  0  0  0  0  0  0
    6.4789   -6.9636   15.0740 C   0  0  0  0  0  0  0  0  0  0  0  0
    4.9362   -8.2791   15.5512 C   0  0  0  0  0  0  0  0  0  0  0  0
   11.2817   -2.9670   24.0659 O   0  0  0  0  0  0  0  0  0  0  0  0
   12.0436   -3.2821   24.0227 C   0  0  0  0  0  0  0  0  0  0  0  0
    7.2367   -8.1429   17.1184 C   0  0  0  0  0  0  0  0  0  0  0  0
    9.6637   -7.5151   18.4404 C   0  0  0  0  0  0  0  0  0  0  0  0
   10.3439   -5.7733   18.9710 C   0  0  0  0  0  0  0  0  0  0  0  0
    9.0938   -4.6766   16.3667 C   0  0  0  0  0  0  0  0  0  0  0  0
   10.5830   -3.5626   17.3292 C   0  0  0  0  0  0  0  0  0  0  0  0
    7.0654   -8.2950   15.8061 C   0  0  0  0  0  0  0  0  0  0  0  0
  1 26  4  0
  2 27  2  0
  5  8  4  0
  5 10  4  0
  6 25  1  0
  7 10  4  0
  7 28  4  0
  9 23  1  0
 11 16  4  0
 12 19  4  0
 12 23  1  0
 13 24  1  0
 14 28  4  0
 15 27  1  0
 16 21  4  0
 18 19  4  0
 22 23  2  0
 24 29  4  0
M  END
$$$$

 Created by Python create_sdf_string function

 29 48  0  0  0  0  0  0  0  0999 V2000
    9.8644   -6.6969   18.5315 P   0  0  0  0  0  0  0  0  0  0  0  0
    8.1558   -5.5889   14.6733 Cl  0  0  0  0  0  0  0  0  0  0  0  0
    9.6514   -6.2199   18.4217 C   0  0  0  0  0  0  0  0  0  0  0  0
    7.5392   -7.2413   18.7421 C   0  0  0  0  0  0  0  0  0  0  0  0
   14.5514   -2.0729   25.8988 N   0  0  0  0  0  0  0  0  0  0  0  0
   11.4709   -5.7366   20.7271 F   0  0  0  0  0  0  0  0  0  0  0  0
   14.8776   -3.9893   23.9399 O   0  0  0  0  0  0  0  0  0  0  0  0
   10.8435   -3.9731   17.0585 C   0  0  0  0  0  0  0  0  0  0  0  0
    8.7867   -4.7925   17.3220 N   0  0  0  0  0  0  0  0  0  0  0  0
    7.3885   -6.7181   16.8342 N   0  0  0  0  0  0  0  0  0  0  0  0
   10.8569   -4.1092   22.0893 F   0  0  0  0  0  0  0  0  0  0  0  0
   11.7957   -4.1629   23.0994 C   0  0  0  0  0  0  0  0  0  0  0  0
    6.4869   -6.9600   16.0157 C   0  0  0  0  0  0  0  0  0  0  0  0
   12.1355   -3.0027   24.0856 C   0  0  0  0  0  0  0  0  0  0  0  0
    7.6143   -8.5075   17.5684 C   0  0  0  0  0  0  0  0  0  0  0  0
   10.1620   -6.0607   19.0242 C   0  0  0  0  0  0  0  0  0  0  0  0
    8.7718   -5.2473   16.3029 C   0  0  0  0  0  0  0  0  0  0  0  0
   10.9827   -4.0645   17.7113 N   0  0  0  0  0  0  0  0  0  0  0  0
    6.6916   -9.0370   15.6133 C   0  0  0  0  0  0  0  0  0  0  0  0
    6.5827  -10.4283   13.8876 He  0  0  0  0  0  0  0  0  0  0  0  0
   10.8995   -4.6679   19.6715 He  0  0  0  0  0  0  0  0  0  0  0  0
   11.6469   -3.3116   16.9877 He  0  0  0  0  0  0  0  0  0  0  0  0
   11.4837   -6.7988   20.7663 He  0  0  0  0  0  0  0  0  0  0  0  0
    5.2585  -10.3191   15.8080 He  0  0  0  0  0  0  0  0  0  0  0  0
    5.9719   -7.2249   18.4236 He  0  0  0  0  0  0  0  0  0  0  0  0
    6.1279   -7.1615   16.3351 He  0  0  0  0  0  0  0  0  0  0  0  0
    5.7258   -8.6716   15.4882 He  0  0  0  0  0  0  0  0  0  0  0  0
   12.4432   -2.5663   23.6476 He  0  0  0  0  0  0  0  0  0  0  0  0
    8.5214   -7.7204   19.5155 He  0  0  0  0  0  0  0  0  0  0  0  0
  1  2  2  0
  1 10  3  0
  1 15  3  0
  1 16  4  0
  2  3  2  0
  2 13  2  0
  2 14  4  0
  2 16  4  0
  2 17  2  0
  2 19  3  0
  3  5  2  0
  3  7  1  0
  3  9  2  0
  3 12  3  0
  3 13  4  0
  3 18  4  0
  4  7  2  0
  4 10  3  0
  4 11  2  0
  5  7  2  0
  5  8  4  0
  5 13  3  0
  5 15  1  0
  6  7  4  0
  6 14  1  0
  6 16  2  0
  6 18  2  0
  7 11  4  0
  7 12  3  0
  7 13  1  0
  7 16  4  0
  8 15  3  0
  8 16  2  0
  8 18  2  0
  9 14  3  0
 10 11  2  0
 10 15  3  0
 10 17  4  0
 11 12  4  0
 11 15  3  0
 12 15  4  0
 13 17  1  0
 13 19  4  0
 14 18  1  0
 14 19  3  0
 15 17  2  0
 16 19  3  0
 18 19  1  0
M  END
$$$$

 Created by Python create_sdf_string function

 29 18  0  0  0  0  0  0  0  0999 V2000
    9.9562   -6.4459   18.7498 C   0  0  0  0  0  0  0  0  0  0  0  0
    7.7633   -5.1491   15.3609 O   0  0  0  0  0  0  0  0  0  0  0  0
   10.0227   -5.4569   18.2481 C   0  0  0  0  0  0  0  0  0  0  0  0
    6.4244  -10.3710   14.7684 O   0  0  0  0  0  0  0  0  0  0  0  0
   11.2611   -4.5813   20.0087 C   0  0  0  0  0  0  0  0  0  0  0  0
    8.1732   -7.5756   18.2617 C   0  0  0  0  0  0  0  0  0  0  0  0
   11.2947   -3.3126   17.3022 C   0  0  0  0  0  0  0  0  0  0  0  0
   11.1176   -5.2848   21.2783 C   0  0  0  0  0  0  0  0  0  0  0  0
   13.6195   -2.6320   24.9799 N   0  0  0  0  0  0  0  0  0  0  0  0
   11.8506   -4.3918   20.8958 C   0  0  0  0  0  0  0  0  0  0  0  0
    5.6112   -9.6357   15.5830 C   0  0  0  0  0  0  0  0  0  0  0  0
   14.0854   -3.8564   23.7238 O   0  0  0  0  0  0  0  0  0  0  0  0
    6.0387   -7.6834   18.2312 C   0  0  0  0  0  0  0  0  0  0  0  0
   10.5948   -3.9418   16.9362 C   0  0  0  0  0  0  0  0  0  0  0  0
    9.5792   -4.9044   17.0073 C   0  0  0  0  0  0  0  0  0  0  0  0
    6.0429   -7.5813   16.3055 C   0  0  0  0  0  0  0  0  0  0  0  0
    7.8718   -6.6403   16.8931 N   0  0  0  0  0  0  0  0  0  0  0  0
   11.3014   -4.2626   22.0718 C   0  0  0  0  0  0  0  0  0  0  0  0
   12.0448   -4.0753   22.5714 C   0  0  0  0  0  0  0  0  0  0  0  0
    6.8051   -7.8004   16.0244 C   0  0  0  0  0  0  0  0  0  0  0  0
    5.1216   -8.6333   16.0617 C   0  0  0  0  0  0  0  0  0  0  0  0
   12.4593   -3.1922   23.6769 C   0  0  0  0  0  0  0  0  0  0  0  0
   12.6547   -2.9329   24.1815 C   0  0  0  0  0  0  0  0  0  0  0  0
    7.1797   -8.2007   17.6865 C   0  0  0  0  0  0  0  0  0  0  0  0
    8.9236   -7.5712   18.7141 C   0  0  0  0  0  0  0  0  0  0  0  0
   10.4852   -5.6067   19.2795 C   0  0  0  0  0  0  0  0  0  0  0  0
    8.4183   -5.5398   16.2436 C   0  0  0  0  0  0  0  0  0  0  0  0
   10.9789   -3.8073   17.6968 C   0  0  0  0  0  0  0  0  0  0  0  0
    6.8555   -9.0983   15.6198 C   0  0  0  0  0  0  0  0  0  0  0  0
  1 26  4  0
  2 27  2  0
  3 26  4  0
  5 10  4  0
  6 25  1  0
  8 18  4  0
  9 23  1  0
 11 21  4  0
 13 24  1  0
 14 28  4  0
 15 27  4  0
 16 20  4  0
 16 21  4  0
 17 27  4  0
 18 19  4  0
 19 22  4  0
 20 29  4  0
 22 23  1  0
M  END
$$$$

 Created by Python create_sdf_string function

 29 63  0  0  0  0  0  0  0  0999 V2000
    7.4217   -5.4358   14.8473 O   0  0  0  0  0  0  0  0  0  0  0  0
    9.6736   -5.8052   17.8349 N   0  0  0  0  0  0  0  0  0  0  0  0
    6.2791  -10.6147   14.3997 O   0  0  0  0  0  0  0  0  0  0  0  0
   11.7598   -4.3108   19.8134 I   0  0  0  0  0  0  0  0  0  0  0  0
   10.9232   -2.7040   17.3034 C   0  0  0  0  0  0  0  0  0  0  0  0
    5.9048   -9.7371   16.0151 C   0  0  0  0  0  0  0  0  0  0  0  0
   13.6273   -4.3325   23.9420 O   0  0  0  0  0  0  0  0  0  0  0  0
    6.6273   -7.4124   18.1295 C   0  0  0  0  0  0  0  0  0  0  0  0
   10.4555   -3.9284   16.6922 C   0  0  0  0  0  0  0  0  0  0  0  0
   10.2747   -4.5712   15.4868 O   0  0  0  0  0  0  0  0  0  0  0  0
    5.5744   -7.4711   15.8175 C   0  0  0  0  0  0  0  0  0  0  0  0
    9.0159   -6.7046   16.8864 N   0  0  0  0  0  0  0  0  0  0  0  0
   11.3850   -4.1797   21.9265 C   0  0  0  0  0  0  0  0  0  0  0  0
   12.2573   -4.2141   22.8127 C   0  0  0  0  0  0  0  0  0  0  0  0
   12.6178   -3.8742   23.5791 C   0  0  0  0  0  0  0  0  0  0  0  0
   12.7231   -2.5144   24.1782 C   0  0  0  0  0  0  0  0  0  0  0  0
    7.7911   -8.2515   16.4578 C   0  0  0  0  0  0  0  0  0  0  0  0
    8.4730   -8.2008   18.6880 C   0  0  0  0  0  0  0  0  0  0  0  0
   10.5007   -5.5421   19.4375 C   0  0  0  0  0  0  0  0  0  0  0  0
    8.7563   -5.1691   16.6396 C   0  0  0  0  0  0  0  0  0  0  0  0
    7.4602   -8.9332   14.9190 C   0  0  0  0  0  0  0  0  0  0  0  0
    9.4801   -6.0883   19.4233 He  0  0  0  0  0  0  0  0  0  0  0  0
    8.7868   -7.9692   18.0066 He  0  0  0  0  0  0  0  0  0  0  0  0
   11.7109   -4.7076   20.4494 He  0  0  0  0  0  0  0  0  0  0  0  0
   13.7275   -2.2674   25.6026 He  0  0  0  0  0  0  0  0  0  0  0  0
   11.8523   -4.4444   21.0862 He  0  0  0  0  0  0  0  0  0  0  0  0
    6.5096   -7.8966   16.4487 He  0  0  0  0  0  0  0  0  0  0  0  0
    4.8049   -7.2479   16.2800 He  0  0  0  0  0  0  0  0  0  0  0  0
   10.1594   -4.1131   16.3614 He  0  0  0  0  0  0  0  0  0  0  0  0
  1  3  1  0
  1  7  1  0
  1 10  1  0
  1 14  3  0
  1 19  4  0
  2  6  2  0
  2  7  4  0
  2  8  3  0
  2 10  3  0
  2 11  2  0
  2 15  1  0
  2 16  2  0
  2 19  4  0
  3  5  2  0
  3  8  2  0
  3 13  4  0
  3 15  2  0
  3 16  3  0
  3 17  3  0
  3 18  4  0
  4  8  4  0
  4  9  3  0
  4 12  4  0
  4 14  2  0
  4 15  2  0
  4 16  3  0
  4 17  1  0
  5 17  4  0
  5 18  1  0
  5 21  2  0
  6 17  2  0
  7  9  1  0
  7 10  1  0
  7 15  4  0
  7 16  1  0
  7 19  4  0
  8  9  3  0
  8 10  4  0
  8 13  2  0
  8 15  1  0
  8 16  2  0
  8 17  3  0
  8 19  1  0
  8 21  2  0
  9 10  4  0
  9 15  3  0
  9 21  2  0
 10 11  2  0
 10 15  1  0
 10 16  3  0
 11 12  2  0
 11 15  3  0
 11 16  1  0
 11 18  2  0
 13 14  4  0
 13 18  1  0
 13 20  4  0
 14 21  3  0
 15 17  1  0
 16 18  2  0
 17 21  3  0
 18 21  3  0
 20 21  1  0
M  END
$$$$

 Created by Python create_sdf_string function

 29 25  0  0  0  0  0  0  0  0999 V2000
   10.0896   -6.5414   19.2630 C   0  0  0  0  0  0  0  0  0  0  0  0
    7.4726   -5.3890   15.3444 O   0  0  0  0  0  0  0  0  0  0  0  0
    9.9892   -5.4158   17.8976 C   0  0  0  0  0  0  0  0  0  0  0  0
    6.3964  -10.4843   14.7388 O   0  0  0  0  0  0  0  0  0  0  0  0
   11.5620   -4.1207   20.4515 C   0  0  0  0  0  0  0  0  0  0  0  0
    8.7828   -7.9215   17.8371 C   0  0  0  0  0  0  0  0  0  0  0  0
   11.2006   -3.2426   17.9307 C   0  0  0  0  0  0  0  0  0  0  0  0
   11.3044   -4.4820   20.5158 C   0  0  0  0  0  0  0  0  0  0  0  0
   13.3070   -2.6538   25.2584 C   0  0  0  0  0  0  0  0  0  0  0  0
   12.0979   -4.2263   21.5409 C   0  0  0  0  0  0  0  0  0  0  0  0
    5.9705   -9.3005   15.5211 C   0  0  0  0  0  0  0  0  0  0  0  0
   13.2672   -4.1967   23.9636 O   0  0  0  0  0  0  0  0  0  0  0  0
    6.4125   -7.4201   17.9526 C   0  0  0  0  0  0  0  0  0  0  0  0
   10.7442   -3.7109   17.1070 C   0  0  0  0  0  0  0  0  0  0  0  0
    9.7680   -4.0870   15.9048 C   0  0  0  0  0  0  0  0  0  0  0  0
    5.2502   -7.6252   16.0916 C   0  0  0  0  0  0  0  0  0  0  0  0
    9.0772   -6.1603   17.1893 N   0  0  0  0  0  0  0  0  0  0  0  0
   11.5330   -4.3384   22.2302 C   0  0  0  0  0  0  0  0  0  0  0  0
   11.8317   -4.1735   22.8677 C   0  0  0  0  0  0  0  0  0  0  0  0
    6.8714   -7.8530   16.2945 C   0  0  0  0  0  0  0  0  0  0  0  0
    4.9288   -7.8928   16.4734 C   0  0  0  0  0  0  0  0  0  0  0  0
   12.6616   -3.8707   23.3596 C   0  0  0  0  0  0  0  0  0  0  0  0
   12.8596   -2.9680   24.3578 C   0  0  0  0  0  0  0  0  0  0  0  0
    7.5540   -7.9934   16.8030 C   0  0  0  0  0  0  0  0  0  0  0  0
    9.2159   -7.6579   18.4826 C   0  0  0  0  0  0  0  0  0  0  0  0
   10.4182   -5.4550   19.1227 C   0  0  0  0  0  0  0  0  0  0  0  0
    8.9043   -5.3891   16.4272 C   0  0  0  0  0  0  0  0  0  0  0  0
   10.5054   -3.8443   16.6105 C   0  0  0  0  0  0  0  0  0  0  0  0
    7.1260   -8.8852   15.6257 C   0  0  0  0  0  0  0  0  0  0  0  0
  1 25  4  0
  1 26  4  0
  2 27  2  0
  3 17  4  0
  3 26  4  0
  4 11  1  0
  5  8  4  0
  5 10  4  0
  6 24  4  0
  6 25  4  0
  7 14  4  0
  9 23  1  0
 11 21  4  0
 11 29  4  0
 12 22  4  0
 14 28  4  0
 15 27  4  0
 15 28  4  0
 16 21  4  0
 17 27  4  0
 18 19  4  0
 19 22  4  0
 20 24  4  0
 20 29  4  0
 24 29  4  0
M  END
$$$$

 Created by Python create_sdf_string function

 29 63  0  0  0  0  0  0  0  0999 V2000
   10.1391   -7.0001   18.7074 C   0  0  0  0  0  0  0  0  0  0  0  0
    8.2297   -3.1618   15.9638 O   0  0  0  0  0  0  0  0  0  0  0  0
   10.1810   -4.5385   18.0331 C   0  0  0  0  0  0  0  0  0  0  0  0
    5.2434  -10.1975   16.0609 O   0  0  0  0  0  0  0  0  0  0  0  0
   12.7779   -4.0893   18.0810 C   0  0  0  0  0  0  0  0  0  0  0  0
   11.0775   -4.9340   19.9363 F   0  0  0  0  0  0  0  0  0  0  0  0
    5.4731   -9.5571   16.6429 C   0  0  0  0  0  0  0  0  0  0  0  0
   13.0388   -5.4824   23.7550 O   0  0  0  0  0  0  0  0  0  0  0  0
    5.9565   -7.4349   18.1228 C   0  0  0  0  0  0  0  0  0  0  0  0
   10.7915   -4.0728   17.3322 C   0  0  0  0  0  0  0  0  0  0  0  0
    8.5798   -4.5609   15.4932 O   0  0  0  0  0  0  0  0  0  0  0  0
    5.9839   -5.8961   16.3499 C   0  0  0  0  0  0  0  0  0  0  0  0
    9.9403   -6.1540   17.6039 S   0  0  0  0  0  0  0  0  0  0  0  0
   11.4986   -4.0307   22.3804 C   0  0  0  0  0  0  0  0  0  0  0  0
    4.7099   -8.2494   17.2514 C   0  0  0  0  0  0  0  0  0  0  0  0
   12.5859   -2.7352   24.4524 C   0  0  0  0  0  0  0  0  0  0  0  0
    8.4130   -8.2971   15.3945 C   0  0  0  0  0  0  0  0  0  0  0  0
    8.8471   -7.5991   17.6783 C   0  0  0  0  0  0  0  0  0  0  0  0
   10.4709   -5.7438   19.2113 C   0  0  0  0  0  0  0  0  0  0  0  0
    8.7433   -5.3095   16.4015 C   0  0  0  0  0  0  0  0  0  0  0  0
    6.9412   -8.8871   14.7148 N   0  0  0  0  0  0  0  0  0  0  0  0
   12.1519   -3.4354   20.0752 He  0  0  0  0  0  0  0  0  0  0  0  0
    8.4560   -7.3824   17.4929 He  0  0  0  0  0  0  0  0  0  0  0  0
   12.3097   -2.4347   24.0887 He  0  0  0  0  0  0  0  0  0  0  0  0
   11.4422   -3.7942   22.0729 He  0  0  0  0  0  0  0  0  0  0  0  0
   12.2827   -4.6406   23.0284 He  0  0  0  0  0  0  0  0  0  0  0  0
    6.5762   -7.9312   15.9190 He  0  0  0  0  0  0  0  0  0  0  0  0
   11.6421   -3.8335   22.7029 He  0  0  0  0  0  0  0  0  0  0  0  0
   10.2399   -4.1985   15.8745 He  0  0  0  0  0  0  0  0  0  0  0  0
  1 14  1  0
  1 18  4  0
  1 19  4  0
  2  5  1  0
  2 11  2  0
  2 12  4  0
  3  5  4  0
  3  9  1  0
  3 13  4  0
  3 16  3  0
  3 19  4  0
  4  5  1  0
  4  7  1  0
  4 12  2  0
  4 13  1  0
  4 19  2  0
  4 20  1  0
  5 11  4  0
  5 13  2  0
  5 18  1  0
  5 19  1  0
  5 20  3  0
  5 21  2  0
  6  7  2  0
  6 11  3  0
  6 14  4  0
  6 15  4  0
  6 17  3  0
  6 18  2  0
  6 20  4  0
  7  8  2  0
  7 15  4  0
  7 16  1  0
  7 21  2  0
  8 10  3  0
  8 13  1  0
  8 14  1  0
  8 17  2  0
  8 18  4  0
  9 11  3  0
  9 16  3  0
  9 17  4  0
 10 11  4  0
 10 15  1  0
 10 17  3  0
 11 12  4  0
 11 13  4  0
 11 15  1  0
 12 15  4  0
 12 16  3  0
 12 19  3  0
 12 20  2  0
 13 18  2  0
 13 19  2  0
 14 15  1  0
 14 21  1  0
 15 16  4  0
 15 18  3  0
 15 21  4  0
 16 18  2  0
 16 21  1  0
 17 21  4  0
 19 21  1  0
M  END
$$$$

 Created by Python create_sdf_string function

 29 27  0  0  0  0  0  0  0  0999 V2000
    9.9835   -7.0471   19.1626 C   0  0  0  0  0  0  0  0  0  0  0  0
    8.5472   -3.5266   15.4726 O   0  0  0  0  0  0  0  0  0  0  0  0
   10.5263   -5.0151   18.2950 C   0  0  0  0  0  0  0  0  0  0  0  0
    4.9018  -10.0424   16.2322 O   0  0  0  0  0  0  0  0  0  0  0  0
   11.3783   -4.0110   20.9030 C   0  0  0  0  0  0  0  0  0  0  0  0
    8.5562   -7.4369   17.1462 C   0  0  0  0  0  0  0  0  0  0  0  0
   11.2406   -3.7730   18.2444 C   0  0  0  0  0  0  0  0  0  0  0  0
   11.2394   -5.0602   20.5565 C   0  0  0  0  0  0  0  0  0  0  0  0
   12.1742   -2.6286   24.5968 O   0  0  0  0  0  0  0  0  0  0  0  0
   11.1240   -3.3997   21.9538 C   0  0  0  0  0  0  0  0  0  0  0  0
    5.4586   -9.2073   16.3887 C   0  0  0  0  0  0  0  0  0  0  0  0
   12.8610   -5.4183   23.8197 O   0  0  0  0  0  0  0  0  0  0  0  0
    5.8900   -7.5256   17.8212 C   0  0  0  0  0  0  0  0  0  0  0  0
   11.0985   -3.5508   17.0401 C   0  0  0  0  0  0  0  0  0  0  0  0
    9.1660   -4.1816   16.0649 C   0  0  0  0  0  0  0  0  0  0  0  0
    6.8060   -6.9199   16.6016 C   0  0  0  0  0  0  0  0  0  0  0  0
    9.6247   -5.6124   17.3361 C   0  0  0  0  0  0  0  0  0  0  0  0
   11.9391   -4.9928   22.0948 C   0  0  0  0  0  0  0  0  0  0  0  0
   12.2414   -4.7583   22.8966 C   0  0  0  0  0  0  0  0  0  0  0  0
    6.4491   -8.3089   16.1224 C   0  0  0  0  0  0  0  0  0  0  0  0
    5.0262   -8.4130   17.3028 C   0  0  0  0  0  0  0  0  0  0  0  0
   11.3522   -3.2809   22.7244 C   0  0  0  0  0  0  0  0  0  0  0  0
   12.1002   -3.0480   24.1818 C   0  0  0  0  0  0  0  0  0  0  0  0
    8.2579   -8.4409   15.7169 C   0  0  0  0  0  0  0  0  0  0  0  0
    9.2758   -7.3839   18.0245 C   0  0  0  0  0  0  0  0  0  0  0  0
   10.6761   -5.7503   19.4450 C   0  0  0  0  0  0  0  0  0  0  0  0
    8.5907   -5.8233   16.6147 C   0  0  0  0  0  0  0  0  0  0  0  0
   10.3966   -3.6599   16.1184 C   0  0  0  0  0  0  0  0  0  0  0  0
    7.1146   -8.9410   15.5227 C   0  0  0  0  0  0  0  0  0  0  0  0
  1 25  4  0
  1 26  4  0
  2 15  2  0
  3  7  4  0
  3 17  4  0
  3 26  4  0
  4 11  1  0
  5  8  4  0
  5 10  4  0
  6 25  4  0
  7 14  4  0
  8 26  4  0
  9 23  1  0
 10 22  4  0
 11 20  4  0
 11 21  4  0
 12 19  1  0
 13 16  4  0
 13 21  4  0
 14 28  4  0
 15 28  4  0
 16 20  4  0
 17 27  4  0
 18 19  4  0
 20 29  4  0
 22 23  4  0
 24 29  4  0
M  END
$$$$

 Created by Python create_sdf_string function

 29 71  0  0  0  0  0  0  0  0999 V2000
    8.0525   -3.3109   14.4698 O   0  0  0  0  0  0  0  0  0  0  0  0
   10.7419   -4.7133   17.9833 B   0  0  0  0  0  0  0  0  0  0  0  0
   11.4081   -4.9857   20.4032 F   0  0  0  0  0  0  0  0  0  0  0  0
    8.3870   -8.4429   17.0710 S   0  0  0  0  0  0  0  0  0  0  0  0
   11.0587   -4.1330   19.5717 Se  0  0  0  0  0  0  0  0  0  0  0  0
   11.4913   -4.4109   19.6152 F   0  0  0  0  0  0  0  0  0  0  0  0
   11.4615   -2.6317   22.7010 C   0  0  0  0  0  0  0  0  0  0  0  0
    5.6470   -9.4181   17.8185 C   0  0  0  0  0  0  0  0  0  0  0  0
   13.9096   -5.8303   23.7133 O   0  0  0  0  0  0  0  0  0  0  0  0
    5.9921   -7.2804   17.8744 C   0  0  0  0  0  0  0  0  0  0  0  0
   11.3365   -3.5770   17.1523 C   0  0  0  0  0  0  0  0  0  0  0  0
    8.9097   -3.3586   15.7918 O   0  0  0  0  0  0  0  0  0  0  0  0
    6.9169   -5.9498   16.4600 C   0  0  0  0  0  0  0  0  0  0  0  0
   10.3280   -5.9554   18.2212 C   0  0  0  0  0  0  0  0  0  0  0  0
   12.2747   -4.5637   21.9648 C   0  0  0  0  0  0  0  0  0  0  0  0
   12.3401   -4.2113   22.9595 C   0  0  0  0  0  0  0  0  0  0  0  0
    6.4738   -8.2667   16.9438 P   0  0  0  0  0  0  0  0  0  0  0  0
   12.0783   -2.9817   23.9878 C   0  0  0  0  0  0  0  0  0  0  0  0
    7.8060   -7.4859   18.4587 P   0  0  0  0  0  0  0  0  0  0  0  0
   10.7400   -5.3638   20.0361 Se  0  0  0  0  0  0  0  0  0  0  0  0
    8.9927   -5.9162   16.9451 C   0  0  0  0  0  0  0  0  0  0  0  0
    7.0526   -9.0578   14.8281 N   0  0  0  0  0  0  0  0  0  0  0  0
   10.8360   -7.1029   19.1774 He  0  0  0  0  0  0  0  0  0  0  0  0
    4.3223   -9.8091   16.5742 He  0  0  0  0  0  0  0  0  0  0  0  0
   12.4441   -3.0064   23.2251 He  0  0  0  0  0  0  0  0  0  0  0  0
    4.5283   -9.3819   17.4423 He  0  0  0  0  0  0  0  0  0  0  0  0
   12.7576   -3.5914   23.1632 He  0  0  0  0  0  0  0  0  0  0  0  0
    8.0468   -8.9417   16.2750 He  0  0  0  0  0  0  0  0  0  0  0  0
   10.0358   -4.0329   16.0683 He  0  0  0  0  0  0  0  0  0  0  0  0
  1  6  1  0
  1  7  2  0
  1 10  3  0
  1 12  2  0
  1 13  1  0
  1 16  3  0
  1 17  1  0
  1 19  3  0
  1 21  2  0
  1 22  3  0
  2  4  2  0
  2  6  1  0
  2  7  4  0
  2  8  1  0
  2 11  3  0
  2 12  2  0
  2 14  4  0
  2 15  4  0
  2 16  3  0
  2 18  4  0
  2 20  4  0
  3  4  4  0
  3  5  3  0
  3  6  4  0
  3 15  3  0
  3 18  4  0
  3 21  2  0
  4  6  4  0
  4 10  4  0
  4 14  3  0
  4 18  2  0
  4 21  4  0
  5  9  1  0
  5 11  2  0
  5 13  4  0
  5 17  2  0
  6  8  2  0
  6 11  2  0
  6 15  4  0
  6 21  1  0
  6 22  1  0
  7  9  2  0
  7 14  4  0
  7 15  3  0
  7 17  2  0
  7 20  3  0
  7 21  1  0
  8 12  1  0
  8 13  2  0
  8 20  1  0
  9 15  4  0
  9 16  4  0
  9 19  1  0
 10 13  4  0
 10 18  2  0
 11 12  2  0
 11 21  2  0
 11 22  3  0
 12 18  2  0
 13 15  2  0
 13 16  1  0
 13 18  3  0
 13 21  1  0
 14 15  2  0
 14 17  3  0
 15 16  4  0
 15 17  2  0
 15 18  3  0
 16 19  4  0
 17 21  4  0
 19 22  2  0
M  END
$$$$

 Created by Python create_sdf_string function

 29 23  0  0  0  0  0  0  0  0999 V2000
    9.9429   -7.2822   18.7872 S   0  0  0  0  0  0  0  0  0  0  0  0
    8.4899   -3.8172   15.4733 O   0  0  0  0  0  0  0  0  0  0  0  0
   10.5312   -4.8096   18.2465 C   0  0  0  0  0  0  0  0  0  0  0  0
    4.2890   -9.4781   16.8492 O   0  0  0  0  0  0  0  0  0  0  0  0
   11.6272   -4.4109   20.9295 C   0  0  0  0  0  0  0  0  0  0  0  0
    8.2159   -7.7231   17.1822 C   0  0  0  0  0  0  0  0  0  0  0  0
   11.1744   -3.9686   19.7323 C   0  0  0  0  0  0  0  0  0  0  0  0
   11.3879   -4.0792   20.4609 C   0  0  0  0  0  0  0  0  0  0  0  0
   12.4067   -2.9517   23.8619 C   0  0  0  0  0  0  0  0  0  0  0  0
   11.4223   -2.7009   22.3936 C   0  0  0  0  0  0  0  0  0  0  0  0
    5.2906   -9.0745   17.3233 C   0  0  0  0  0  0  0  0  0  0  0  0
   13.3865   -5.4442   23.5922 O   0  0  0  0  0  0  0  0  0  0  0  0
    6.2213   -7.7610   17.8229 C   0  0  0  0  0  0  0  0  0  0  0  0
   10.9285   -3.6718   17.3486 C   0  0  0  0  0  0  0  0  0  0  0  0
    9.1027   -3.8993   15.8466 C   0  0  0  0  0  0  0  0  0  0  0  0
    7.8439   -5.7208   16.1077 C   0  0  0  0  0  0  0  0  0  0  0  0
    9.9865   -5.8598   18.1995 C   0  0  0  0  0  0  0  0  0  0  0  0
   12.2493   -4.6719   22.0572 C   0  0  0  0  0  0  0  0  0  0  0  0
   12.7609   -5.0232   22.9033 C   0  0  0  0  0  0  0  0  0  0  0  0
    6.3101   -8.5167   16.9791 C   0  0  0  0  0  0  0  0  0  0  0  0
    4.5831   -9.0312   17.5422 C   0  0  0  0  0  0  0  0  0  0  0  0
   12.3984   -3.4119   23.4713 C   0  0  0  0  0  0  0  0  0  0  0  0
   12.2448   -3.0319   24.1869 C   0  0  0  0  0  0  0  0  0  0  0  0
    7.8318   -8.7284   15.9503 C   0  0  0  0  0  0  0  0  0  0  0  0
    8.7463   -7.6543   17.7382 C   0  0  0  0  0  0  0  0  0  0  0  0
   10.8752   -5.2875   19.7683 C   0  0  0  0  0  0  0  0  0  0  0  0
    8.9753   -5.9401   16.9392 C   0  0  0  0  0  0  0  0  0  0  0  0
   10.2882   -3.8241   16.3394 C   0  0  0  0  0  0  0  0  0  0  0  0
    6.9832   -9.1477   15.6918 C   0  0  0  0  0  0  0  0  0  0  0  0
  1 17  4  0
  1 25  4  0
  2 15  2  0
  3 14  4  0
  3 17  4  0
  3 26  4  0
  4 11  1  0
  5  8  4  0
  6 25  1  0
  6 27  4  0
  7  8  4  0
  9 22  4  0
  9 23  4  0
 11 21  4  0
 12 19  4  0
 13 20  4  0
 14 28  4  0
 15 28  4  0
 16 27  4  0
 17 27  4  0
 18 19  4  0
 20 29  4  0
 24 29  4  0
M  END
$$$$

 Created by Python create_sdf_string function

 29 60  0  0  0  0  0  0  0  0999 V2000
   10.5682   -7.4647   18.3508 S   0  0  0  0  0  0  0  0  0  0  0  0
    8.3705   -3.4693   15.6510 O   0  0  0  0  0  0  0  0  0  0  0  0
   11.2027   -3.8918   19.6509 O   0  0  0  0  0  0  0  0  0  0  0  0
   11.0826   -4.3144   20.5882 N   0  0  0  0  0  0  0  0  0  0  0  0
   11.0630   -4.0330   20.0595 C   0  0  0  0  0  0  0  0  0  0  0  0
   11.7335   -2.2834   22.8418 O   0  0  0  0  0  0  0  0  0  0  0  0
    4.4076   -9.4566   16.7405 P   0  0  0  0  0  0  0  0  0  0  0  0
    6.9483   -7.4747   18.3914 C   0  0  0  0  0  0  0  0  0  0  0  0
   11.2598   -3.8212   16.9911 C   0  0  0  0  0  0  0  0  0  0  0  0
   11.2344   -5.2812   17.3576 N   0  0  0  0  0  0  0  0  0  0  0  0
   12.6815   -4.5538   22.0176 C   0  0  0  0  0  0  0  0  0  0  0  0
   12.7501   -4.8228   22.9381 C   0  0  0  0  0  0  0  0  0  0  0  0
    6.0758   -8.0886   17.1217 C   0  0  0  0  0  0  0  0  0  0  0  0
    4.8467   -8.5417   17.8877 Cl  0  0  0  0  0  0  0  0  0  0  0  0
   11.6152   -2.4239   23.9866 C   0  0  0  0  0  0  0  0  0  0  0  0
   11.9885   -3.0511   24.2486 C   0  0  0  0  0  0  0  0  0  0  0  0
    8.5998   -9.4508   16.4800 O   0  0  0  0  0  0  0  0  0  0  0  0
    9.0224   -7.5348   18.4275 C   0  0  0  0  0  0  0  0  0  0  0  0
   11.3279   -5.0746   19.6161 C   0  0  0  0  0  0  0  0  0  0  0  0
    8.6316   -5.6800   16.5007 C   0  0  0  0  0  0  0  0  0  0  0  0
    7.5953   -9.6716   15.8623 C   0  0  0  0  0  0  0  0  0  0  0  0
    9.4676   -4.7783   17.8802 He  0  0  0  0  0  0  0  0  0  0  0  0
    5.5442   -9.6888   17.0111 He  0  0  0  0  0  0  0  0  0  0  0  0
    8.0564   -5.8639   17.8069 He  0  0  0  0  0  0  0  0  0  0  0  0
   12.3268   -2.8514   23.5671 He  0  0  0  0  0  0  0  0  0  0  0  0
   12.5780   -4.4915   23.0507 He  0  0  0  0  0  0  0  0  0  0  0  0
    9.6611   -4.5269   14.7393 He  0  0  0  0  0  0  0  0  0  0  0  0
    7.8395   -5.6796   14.6840 He  0  0  0  0  0  0  0  0  0  0  0  0
    8.9110   -4.1874   16.1936 He  0  0  0  0  0  0  0  0  0  0  0  0
  1  5  3  0
  1  6  4  0
  1 10  4  0
  1 11  4  0
  1 15  2  0
  1 19  4  0
  1 20  4  0
  2  5  2  0
  2 10  4  0
  2 13  4  0
  2 16  1  0
  2 19  1  0
  3  5  4  0
  3  7  3  0
  3 10  1  0
  3 16  4  0
  3 17  1  0
  3 21  4  0
  4  5  4  0
  4  8  4  0
  4  9  4  0
  4 17  3  0
  4 19  1  0
  5  7  4  0
  5  9  3  0
  5 11  1  0
  5 15  4  0
  5 17  4  0
  5 21  3  0
  6 16  2  0
  6 20  3  0
  7 12  3  0
  7 13  4  0
  7 14  4  0
  7 15  2  0
  7 16  3  0
  8  9  1  0
  8 17  4  0
  9 10  4  0
  9 18  4  0
  9 20  2  0
 10 12  2  0
 10 13  2  0
 10 19  2  0
 10 20  4  0
 11 14  4  0
 11 15  3  0
 12 13  1  0
 12 14  3  0
 12 20  4  0
 13 18  3  0
 13 21  4  0
 15 16  2  0
 15 19  4  0
 15 21  2  0
 16 18  4  0
 17 19  2  0
 17 21  3  0
 19 21  4  0
 20 21  2  0
M  END
$$$$

 Created by Python create_sdf_string function

 29 23  0  0  0  0  0  0  0  0999 V2000
   10.2388   -7.0847   18.8989 C   0  0  0  0  0  0  0  0  0  0  0  0
    8.8200   -3.3344   15.3973 O   0  0  0  0  0  0  0  0  0  0  0  0
    9.9856   -5.1653   18.0403 C   0  0  0  0  0  0  0  0  0  0  0  0
    5.2304   -9.4680   16.6405 C   0  0  0  0  0  0  0  0  0  0  0  0
   11.1742   -3.2726   19.8522 O   0  0  0  0  0  0  0  0  0  0  0  0
    8.7117   -6.5772   17.5715 C   0  0  0  0  0  0  0  0  0  0  0  0
   11.5288   -4.6923   20.7248 C   0  0  0  0  0  0  0  0  0  0  0  0
   11.3634   -3.7142   20.8958 C   0  0  0  0  0  0  0  0  0  0  0  0
   12.0848   -3.2187   23.7562 C   0  0  0  0  0  0  0  0  0  0  0  0
   11.3449   -2.1178   22.9532 O   0  0  0  0  0  0  0  0  0  0  0  0
    4.8367   -9.1152   17.1356 C   0  0  0  0  0  0  0  0  0  0  0  0
   12.4866   -4.4272   23.2397 C   0  0  0  0  0  0  0  0  0  0  0  0
    6.4389   -7.6676   17.8833 C   0  0  0  0  0  0  0  0  0  0  0  0
   10.8106   -3.8297   17.1870 C   0  0  0  0  0  0  0  0  0  0  0  0
    9.3604   -4.0607   15.5608 C   0  0  0  0  0  0  0  0  0  0  0  0
    7.8129   -5.8676   15.3684 O   0  0  0  0  0  0  0  0  0  0  0  0
   10.7471   -4.5644   17.9407 N   0  0  0  0  0  0  0  0  0  0  0  0
   12.4148   -4.7427   21.8992 C   0  0  0  0  0  0  0  0  0  0  0  0
   12.6173   -4.8615   22.8555 C   0  0  0  0  0  0  0  0  0  0  0  0
    6.4211   -8.7371   16.4026 C   0  0  0  0  0  0  0  0  0  0  0  0
    5.1500   -8.3881   17.8725 C   0  0  0  0  0  0  0  0  0  0  0  0
   11.6319   -2.6201   24.1282 C   0  0  0  0  0  0  0  0  0  0  0  0
   11.6401   -2.6321   24.4506 C   0  0  0  0  0  0  0  0  0  0  0  0
    8.2913   -8.6238   16.5129 C   0  0  0  0  0  0  0  0  0  0  0  0
    9.2778   -7.4825   18.1917 C   0  0  0  0  0  0  0  0  0  0  0  0
   10.9848   -5.4072   19.7077 C   0  0  0  0  0  0  0  0  0  0  0  0
    8.5429   -5.8045   16.5032 C   0  0  0  0  0  0  0  0  0  0  0  0
    9.5537   -4.1785   16.1926 C   0  0  0  0  0  0  0  0  0  0  0  0
    7.0650   -8.7437   16.3955 C   0  0  0  0  0  0  0  0  0  0  0  0
  1 25  4  0
  1 26  4  0
  2 15  2  0
  3 14  4  0
  4 11  4  0
  5  8  4  0
  6 25  4  0
  6 27  4  0
  7  8  4  0
  7 26  4  0
  9 12  4  0
  9 22  4  0
 11 21  4  0
 12 19  4  0
 13 21  4  0
 14 17  4  0
 14 28  4  0
 15 28  1  0
 16 27  1  0
 18 19  4  0
 20 29  4  0
 22 23  4  0
 24 29  1  0
M  END
$$$$

 Created by Python create_sdf_string function

 29 52  0  0  0  0  0  0  0  0999 V2000
   10.8421   -7.8099   18.6489 C   0  0  0  0  0  0  0  0  0  0  0  0
    4.8989   -9.1225   15.2566 B   0  0  0  0  0  0  0  0  0  0  0  0
   11.3294   -3.5017   19.5049 O   0  0  0  0  0  0  0  0  0  0  0  0
    9.5324   -6.1339   17.9830 C   0  0  0  0  0  0  0  0  0  0  0  0
   11.6799   -1.6292   22.5655 O   0  0  0  0  0  0  0  0  0  0  0  0
    5.0195   -9.2088   17.0543 N   0  0  0  0  0  0  0  0  0  0  0  0
    6.7102   -7.6210   18.1070 F   0  0  0  0  0  0  0  0  0  0  0  0
   10.4257   -3.9052   17.1524 C   0  0  0  0  0  0  0  0  0  0  0  0
    7.0054   -5.5146   14.7224 F   0  0  0  0  0  0  0  0  0  0  0  0
   10.6823   -4.2390   17.2894 N   0  0  0  0  0  0  0  0  0  0  0  0
   12.4685   -5.0424   21.9770 O   0  0  0  0  0  0  0  0  0  0  0  0
   12.4602   -4.7446   23.5114 C   0  0  0  0  0  0  0  0  0  0  0  0
    7.4323   -8.3893   17.7271 C   0  0  0  0  0  0  0  0  0  0  0  0
    5.3457   -8.9369   17.3115 C   0  0  0  0  0  0  0  0  0  0  0  0
   10.2954   -3.0175   22.7556 C   0  0  0  0  0  0  0  0  0  0  0  0
   11.7102   -2.7997   24.6394 C   0  0  0  0  0  0  0  0  0  0  0  0
    9.1638   -7.5617   16.3842 C   0  0  0  0  0  0  0  0  0  0  0  0
    8.5309   -5.5240   16.4380 C   0  0  0  0  0  0  0  0  0  0  0  0
    7.3736   -9.6646   15.3908 Cl  0  0  0  0  0  0  0  0  0  0  0  0
    9.8737   -3.7274   14.4712 He  0  0  0  0  0  0  0  0  0  0  0  0
    8.4483   -5.0438   17.2957 He  0  0  0  0  0  0  0  0  0  0  0  0
   12.2444   -5.0301   21.4689 He  0  0  0  0  0  0  0  0  0  0  0  0
   12.5962   -3.8306   20.3627 He  0  0  0  0  0  0  0  0  0  0  0  0
   12.3511   -3.0083   23.7803 He  0  0  0  0  0  0  0  0  0  0  0  0
   11.5827   -3.7350   23.7361 He  0  0  0  0  0  0  0  0  0  0  0  0
    9.5635   -4.2396   15.7645 He  0  0  0  0  0  0  0  0  0  0  0  0
    9.5781   -6.0321   18.0611 He  0  0  0  0  0  0  0  0  0  0  0  0
   10.7123   -5.2700   20.0728 He  0  0  0  0  0  0  0  0  0  0  0  0
   10.0101   -4.0829   16.1148 He  0  0  0  0  0  0  0  0  0  0  0  0
  1  2  1  0
  1  4  4  0
  1  6  3  0
  1  9  4  0
  1 12  2  0
  1 16  1  0
  1 18  1  0
  2  5  2  0
  2  6  4  0
  2 11  3  0
  2 15  2  0
  2 18  4  0
  3  6  2  0
  3 10  4  0
  3 12  1  0
  3 15  1  0
  3 18  1  0
  4  8  3  0
  4 11  3  0
  4 17  4  0
  4 18  4  0
  4 19  4  0
  5  9  1  0
  5 11  2  0
  6  7  1  0
  6 13  1  0
  6 16  1  0
  7  8  4  0
  7 11  2  0
  7 14  4  0
  7 15  3  0
  7 16  2  0
  7 18  1  0
  8  9  2  0
  8 10  4  0
  8 19  4  0
  9 13  3  0
  9 14  1  0
  9 19  4  0
 10 14  3  0
 11 12  4  0
 11 17  1  0
 11 19  1  0
 12 13  1  0
 12 17  4  0
 13 17  1  0
 13 18  1  0
 14 15  3  0
 14 16  1  0
 14 18  3  0
 16 17  2  0
 17 19  2  0
M  END
$$$$

 Created by Python create_sdf_string function

 29 24  0  0  0  0  0  0  0  0999 V2000
   10.3074   -6.8944   19.0715 C   0  0  0  0  0  0  0  0  0  0  0  0
    9.6651   -3.5188   15.2042 F   0  0  0  0  0  0  0  0  0  0  0  0
    8.9927   -5.7116   17.1741 C   0  0  0  0  0  0  0  0  0  0  0  0
    5.5077   -9.2049   15.7971 C   0  0  0  0  0  0  0  0  0  0  0  0
   11.3722   -3.3997   19.5372 C   0  0  0  0  0  0  0  0  0  0  0  0
    9.4163   -6.5306   17.8731 C   0  0  0  0  0  0  0  0  0  0  0  0
   11.6391   -4.9231   20.9147 C   0  0  0  0  0  0  0  0  0  0  0  0
   11.5821   -3.7871   20.6880 C   0  0  0  0  0  0  0  0  0  0  0  0
   11.8572   -2.9162   23.5515 C   0  0  0  0  0  0  0  0  0  0  0  0
   11.8895   -1.7404   22.8439 O   0  0  0  0  0  0  0  0  0  0  0  0
    4.8613   -8.8765   16.9430 C   0  0  0  0  0  0  0  0  0  0  0  0
   11.5382   -3.5691   23.0504 C   0  0  0  0  0  0  0  0  0  0  0  0
    6.1421   -7.9514   17.9851 C   0  0  0  0  0  0  0  0  0  0  0  0
   10.4222   -3.9814   17.2279 C   0  0  0  0  0  0  0  0  0  0  0  0
    9.2392   -4.0441   15.6841 C   0  0  0  0  0  0  0  0  0  0  0  0
    7.5721   -5.4722   15.3718 O   0  0  0  0  0  0  0  0  0  0  0  0
   10.8860   -4.1012   18.5328 C   0  0  0  0  0  0  0  0  0  0  0  0
   12.5081   -5.2923   22.2133 C   0  0  0  0  0  0  0  0  0  0  0  0
   12.3692   -4.7526   23.0207 C   0  0  0  0  0  0  0  0  0  0  0  0
    7.4043   -8.0308   16.8144 C   0  0  0  0  0  0  0  0  0  0  0  0
    5.2758   -8.5210   17.5045 C   0  0  0  0  0  0  0  0  0  0  0  0
   10.1954   -2.9545   23.1512 C   0  0  0  0  0  0  0  0  0  0  0  0
   11.6699   -2.6834   24.7287 C   0  0  0  0  0  0  0  0  0  0  0  0
    8.6853   -8.0776   17.0825 C   0  0  0  0  0  0  0  0  0  0  0  0
    9.4743   -5.5616   17.5459 C   0  0  0  0  0  0  0  0  0  0  0  0
   11.1782   -5.9912   20.0330 C   0  0  0  0  0  0  0  0  0  0  0  0
    8.4048   -5.8795   16.3989 C   0  0  0  0  0  0  0  0  0  0  0  0
   10.3527   -3.8134   16.6161 C   0  0  0  0  0  0  0  0  0  0  0  0
    6.9281   -8.7797   15.7584 C   0  0  0  0  0  0  0  0  0  0  0  0
  1  6  4  0
  1 26  4  0
  2 15  4  0
  3 25  4  0
  3 27  4  0
  4 11  4  0
  4 29  4  0
  5  8  4  0
  5 17  4  0
  7  8  4  0
  7 26  4  0
  9 12  4  0
  9 23  1  0
 11 21  4  0
 12 19  4  0
 12 22  1  0
 13 20  4  0
 13 21  4  0
 14 17  4  0
 14 28  4  0
 16 27  1  0
 18 19  4  0
 20 24  1  0
 20 29  4  0
M  END
$$$$

 Created by Python create_sdf_string function

 29 56  0  0  0  0  0  0  0  0999 V2000
   10.4970   -7.9813   19.4353 C   0  0  0  0  0  0  0  0  0  0  0  0
   11.0489   -4.0514   19.9624 N   0  0  0  0  0  0  0  0  0  0  0  0
    9.4911   -5.8960   18.1403 C   0  0  0  0  0  0  0  0  0  0  0  0
   10.2773   -5.9946   20.3702 C   0  0  0  0  0  0  0  0  0  0  0  0
   12.4072   -2.7786   22.3298 C   0  0  0  0  0  0  0  0  0  0  0  0
    4.6857   -8.9864   17.2444 C   0  0  0  0  0  0  0  0  0  0  0  0
    6.5049   -7.5388   17.5315 F   0  0  0  0  0  0  0  0  0  0  0  0
   10.4062   -3.9744   16.9045 C   0  0  0  0  0  0  0  0  0  0  0  0
    7.9912   -4.1749   14.7739 C   0  0  0  0  0  0  0  0  0  0  0  0
    8.0971   -5.6067   15.2143 N   0  0  0  0  0  0  0  0  0  0  0  0
   12.2226   -5.6430   21.8327 N   0  0  0  0  0  0  0  0  0  0  0  0
   11.8501   -4.5993   23.1531 C   0  0  0  0  0  0  0  0  0  0  0  0
    7.7090   -7.7227   17.7453 C   0  0  0  0  0  0  0  0  0  0  0  0
    4.3837   -7.9922   16.8370 N   0  0  0  0  0  0  0  0  0  0  0  0
   10.6575   -2.5424   23.0600 C   0  0  0  0  0  0  0  0  0  0  0  0
   11.6879   -3.1561   24.9349 C   0  0  0  0  0  0  0  0  0  0  0  0
    9.7801   -8.7754   16.5209 F   0  0  0  0  0  0  0  0  0  0  0  0
   11.1620   -6.0789   20.3836 C   0  0  0  0  0  0  0  0  0  0  0  0
   11.0420   -3.2502   15.6363 C   0  0  0  0  0  0  0  0  0  0  0  0
    6.6614   -7.8787   16.2960 O   0  0  0  0  0  0  0  0  0  0  0  0
   10.6422   -4.0035   15.8722 He  0  0  0  0  0  0  0  0  0  0  0  0
    9.1233   -7.0405   18.0325 He  0  0  0  0  0  0  0  0  0  0  0  0
    4.7120   -8.7846   16.0702 He  0  0  0  0  0  0  0  0  0  0  0  0
   13.1223   -3.2042   20.7639 He  0  0  0  0  0  0  0  0  0  0  0  0
   13.1849   -3.5261   23.9557 He  0  0  0  0  0  0  0  0  0  0  0  0
   11.1035   -3.9971   23.2250 He  0  0  0  0  0  0  0  0  0  0  0  0
   10.5688   -2.9216   18.1184 He  0  0  0  0  0  0  0  0  0  0  0  0
    9.7565   -6.5592   17.0892 He  0  0  0  0  0  0  0  0  0  0  0  0
    8.3482   -5.8545   16.2725 He  0  0  0  0  0  0  0  0  0  0  0  0
  1  2  2  0
  1  7  4  0
  1  8  2  0
  1 11  4  0
  1 12  1  0
  1 14  3  0
  1 17  2  0
  1 18  4  0
  1 20  1  0
  2  8  1  0
  2 17  3  0
  2 20  1  0
  3  6  3  0
  3 17  3  0
  4  8  3  0
  4  9  4  0
  4 12  2  0
  4 15  4  0
  4 19  1  0
  5  8  1  0
  5  9  1  0
  5 11  1  0
  5 15  3  0
  5 20  2  0
  6 12  3  0
  6 13  4  0
  6 14  4  0
  6 15  1  0
  6 17  2  0
  7 12  2  0
  7 13  4  0
  7 17  3  0
  7 18  1  0
  8 19  4  0
  8 20  1  0
  9 10  1  0
  9 14  3  0
 10 11  4  0
 10 19  4  0
 11 12  4  0
 11 15  4  0
 12 13  2  0
 13 14  3  0
 13 15  2  0
 13 16  2  0
 13 20  4  0
 14 17  4  0
 14 18  3  0
 15 17  4  0
 15 20  1  0
 16 19  4  0
 17 18  4  0
 17 19  3  0
 17 20  4  0
 18 20  2  0
 19 20  1  0
M  END
$$$$

 Created by Python create_sdf_string function

 29 25  0  0  0  0  0  0  0  0999 V2000
   10.1661   -7.5864   19.1245 C   0  0  0  0  0  0  0  0  0  0  0  0
   10.4850   -3.7213   16.0826 C   0  0  0  0  0  0  0  0  0  0  0  0
    9.3811   -7.2076   18.0585 C   0  0  0  0  0  0  0  0  0  0  0  0
    5.2414   -8.2614   16.0916 C   0  0  0  0  0  0  0  0  0  0  0  0
   11.2562   -3.9518   19.8215 C   0  0  0  0  0  0  0  0  0  0  0  0
   10.1610   -5.2178   18.1202 C   0  0  0  0  0  0  0  0  0  0  0  0
   10.7451   -5.3839   19.4241 C   0  0  0  0  0  0  0  0  0  0  0  0
   11.8215   -3.4339   21.0684 C   0  0  0  0  0  0  0  0  0  0  0  0
   12.5226   -3.3563   24.1234 C   0  0  0  0  0  0  0  0  0  0  0  0
   12.1094   -2.9701   22.5657 C   0  0  0  0  0  0  0  0  0  0  0  0
    4.9048   -8.4419   17.7827 C   0  0  0  0  0  0  0  0  0  0  0  0
   11.4208   -3.9631   23.8192 C   0  0  0  0  0  0  0  0  0  0  0  0
    6.3363   -7.8099   18.1574 C   0  0  0  0  0  0  0  0  0  0  0  0
   10.6690   -3.6697   17.3895 C   0  0  0  0  0  0  0  0  0  0  0  0
    8.6730   -4.3727   15.6350 C   0  0  0  0  0  0  0  0  0  0  0  0
    8.2897   -5.5259   15.8844 C   0  0  0  0  0  0  0  0  0  0  0  0
   11.0012   -3.1436   18.4170 C   0  0  0  0  0  0  0  0  0  0  0  0
   12.0354   -4.7051   22.0225 C   0  0  0  0  0  0  0  0  0  0  0  0
   11.8504   -4.6523   23.0247 C   0  0  0  0  0  0  0  0  0  0  0  0
    6.8457   -7.7810   17.3167 C   0  0  0  0  0  0  0  0  0  0  0  0
    4.5220   -8.4840   16.9044 C   0  0  0  0  0  0  0  0  0  0  0  0
   11.0005   -2.7532   23.0447 C   0  0  0  0  0  0  0  0  0  0  0  0
   11.6621   -3.2336   25.0983 C   0  0  0  0  0  0  0  0  0  0  0  0
    8.9516   -8.3575   16.3253 F   0  0  0  0  0  0  0  0  0  0  0  0
    9.5897   -5.9231   17.6525 C   0  0  0  0  0  0  0  0  0  0  0  0
   10.8121   -6.4307   19.9252 C   0  0  0  0  0  0  0  0  0  0  0  0
    8.3696   -6.6676   16.3982 C   0  0  0  0  0  0  0  0  0  0  0  0
   10.9054   -3.5004   15.9498 C   0  0  0  0  0  0  0  0  0  0  0  0
    6.3576   -7.8834   16.1881 C   0  0  0  0  0  0  0  0  0  0  0  0
  1  3  4  0
  1 26  4  0
  2 28  4  0
  3 25  4  0
  4 21  4  0
  4 29  4  0
  5  7  4  0
  5  8  4  0
  5 17  4  0
  6  7  4  0
  6 25  4  0
  7 26  4  0
  9 10  4  0
  9 23  1  0
 10 22  4  0
 11 13  4  0
 11 21  4  0
 12 19  4  0
 13 20  4  0
 14 17  4  0
 14 28  4  0
 15 16  1  0
 16 27  1  0
 18 19  4  0
 20 29  4  0
M  END
$$$$

 Created by Python create_sdf_string function

 29 61  0  0  0  0  0  0  0  0999 V2000
   10.3831   -3.8102   15.8728 C   0  0  0  0  0  0  0  0  0  0  0  0
    8.6090   -6.6436   18.3542 C   0  0  0  0  0  0  0  0  0  0  0  0
   11.2942   -4.3809   20.0939 C   0  0  0  0  0  0  0  0  0  0  0  0
    9.3731   -5.2039   17.9503 F   0  0  0  0  0  0  0  0  0  0  0  0
   11.3018   -5.0685   20.1299 N   0  0  0  0  0  0  0  0  0  0  0  0
   11.4402   -3.8612   20.7989 C   0  0  0  0  0  0  0  0  0  0  0  0
   11.2969   -3.5215   24.0776 C   0  0  0  0  0  0  0  0  0  0  0  0
    5.1232   -8.2725   18.0747 C   0  0  0  0  0  0  0  0  0  0  0  0
   10.6839   -3.6497   24.5167 O   0  0  0  0  0  0  0  0  0  0  0  0
    6.5477   -7.8657   18.1581 C   0  0  0  0  0  0  0  0  0  0  0  0
   10.6875   -3.2839   17.7320 C   0  0  0  0  0  0  0  0  0  0  0  0
   11.6427   -4.5598   22.6072 C   0  0  0  0  0  0  0  0  0  0  0  0
   11.4841   -4.5492   23.0431 C   0  0  0  0  0  0  0  0  0  0  0  0
    6.2305   -7.5732   17.4240 C   0  0  0  0  0  0  0  0  0  0  0  0
    4.2241   -8.5650   15.9071 N   0  0  0  0  0  0  0  0  0  0  0  0
   11.7085   -3.1331   22.0676 C   0  0  0  0  0  0  0  0  0  0  0  0
   11.7288   -2.9598   24.9770 C   0  0  0  0  0  0  0  0  0  0  0  0
    8.6407   -8.8819   16.6323 C   0  0  0  0  0  0  0  0  0  0  0  0
    9.4952   -4.0912   16.9791 C   0  0  0  0  0  0  0  0  0  0  0  0
   10.7061   -6.4803   20.0144 C   0  0  0  0  0  0  0  0  0  0  0  0
    8.4114   -7.0010   16.6737 C   0  0  0  0  0  0  0  0  0  0  0  0
   11.5955   -3.3562   16.1383 C   0  0  0  0  0  0  0  0  0  0  0  0
   10.3944   -7.5310   19.1073 He  0  0  0  0  0  0  0  0  0  0  0  0
    5.3628   -9.4290   15.6653 He  0  0  0  0  0  0  0  0  0  0  0  0
   11.8145   -3.5507   22.6148 He  0  0  0  0  0  0  0  0  0  0  0  0
    9.8149   -4.7136   15.7393 He  0  0  0  0  0  0  0  0  0  0  0  0
    7.8346   -5.7982   15.7265 He  0  0  0  0  0  0  0  0  0  0  0  0
    9.9202   -2.3539   18.6557 He  0  0  0  0  0  0  0  0  0  0  0  0
    6.4504   -8.1059   16.3858 He  0  0  0  0  0  0  0  0  0  0  0  0
  1  5  2  0
  1  9  3  0
  1 10  1  0
  1 11  2  0
  1 13  2  0
  1 18  3  0
  1 21  3  0
  2  3  3  0
  2  7  1  0
  2  8  2  0
  2  9  4  0
  2 10  1  0
  2 18  1  0
  2 19  2  0
  2 20  1  0
  3  4  1  0
  3  6  4  0
  3  8  3  0
  3 12  4  0
  3 13  1  0
  3 18  3  0
  3 19  3  0
  3 21  1  0
  4 13  4  0
  4 17  2  0
  4 22  3  0
  5  6  2  0
  5 12  1  0
  5 14  3  0
  5 16  1  0
  5 18  2  0
  5 20  4  0
  6 13  3  0
  6 20  4  0
  8 15  4  0
  8 16  1  0
  8 17  2  0
  8 19  1  0
  9 10  3  0
  9 13  3  0
  9 21  2  0
 10 11  3  0
 10 14  4  0
 10 18  1  0
 10 19  4  0
 10 21  1  0
 11 22  1  0
 12 13  4  0
 12 18  3  0
 12 19  1  0
 12 20  4  0
 13 16  2  0
 14 17  3  0
 14 18  3  0
 17 18  2  0
 17 19  4  0
 18 20  2  0
 18 21  2  0
 19 20  2  0
 19 22  4  0
 21 22  3  0
M  END
$$$$

 Created by Python create_sdf_string function

 29 20  0  0  0  0  0  0  0  0999 V2000
   10.1781   -7.3880   18.9305 C   0  0  0  0  0  0  0  0  0  0  0  0
    9.9570   -3.8553   15.9849 C   0  0  0  0  0  0  0  0  0  0  0  0
    8.7575   -6.8369   18.0223 C   0  0  0  0  0  0  0  0  0  0  0  0
    5.1803   -8.8662   15.7638 C   0  0  0  0  0  0  0  0  0  0  0  0
   11.0428   -4.1823   20.1950 C   0  0  0  0  0  0  0  0  0  0  0  0
    9.6506   -5.3060   17.8787 C   0  0  0  0  0  0  0  0  0  0  0  0
   10.7587   -5.2255   19.9437 C   0  0  0  0  0  0  0  0  0  0  0  0
   11.1473   -4.0334   20.4259 C   0  0  0  0  0  0  0  0  0  0  0  0
   11.2047   -3.2936   24.0545 C   0  0  0  0  0  0  0  0  0  0  0  0
   11.5260   -2.8452   22.6839 C   0  0  0  0  0  0  0  0  0  0  0  0
    4.8408   -8.3347   17.6263 C   0  0  0  0  0  0  0  0  0  0  0  0
   10.7567   -3.5415   25.2434 O   0  0  0  0  0  0  0  0  0  0  0  0
    6.7010   -7.8235   17.3558 C   0  0  0  0  0  0  0  0  0  0  0  0
   10.8454   -3.5595   17.8617 C   0  0  0  0  0  0  0  0  0  0  0  0
    9.6398   -4.3623   15.8556 C   0  0  0  0  0  0  0  0  0  0  0  0
    8.0788   -5.8423   15.9103 C   0  0  0  0  0  0  0  0  0  0  0  0
   11.0227   -2.9499   18.6356 N   0  0  0  0  0  0  0  0  0  0  0  0
   11.2427   -4.8718   22.3861 C   0  0  0  0  0  0  0  0  0  0  0  0
   11.2554   -4.8214   22.9566 C   0  0  0  0  0  0  0  0  0  0  0  0
    6.1765   -7.8776   17.4884 C   0  0  0  0  0  0  0  0  0  0  0  0
    4.3556   -8.8238   16.7053 C   0  0  0  0  0  0  0  0  0  0  0  0
   11.5750   -2.8207   22.1755 C   0  0  0  0  0  0  0  0  0  0  0  0
   11.3209   -2.8384   25.2272 C   0  0  0  0  0  0  0  0  0  0  0  0
    8.6046   -8.2754   16.8560 C   0  0  0  0  0  0  0  0  0  0  0  0
    9.8401   -4.6596   16.9593 C   0  0  0  0  0  0  0  0  0  0  0  0
   10.4408   -6.3150   19.4139 C   0  0  0  0  0  0  0  0  0  0  0  0
    8.1936   -6.8395   16.3431 C   0  0  0  0  0  0  0  0  0  0  0  0
   11.2513   -3.4075   16.3319 C   0  0  0  0  0  0  0  0  0  0  0  0
    6.4101   -8.3666   16.0293 C   0  0  0  0  0  0  0  0  0  0  0  0
  1 26  4  0
  2 15  4  0
  3 24  1  0
  4 21  4  0
  4 29  4  0
  5  8  4  0
  6 25  4  0
  7 26  4  0
  9 10  4  0
 10 22  4  0
 11 20  4  0
 11 21  4  0
 12 23  1  0
 13 20  4  0
 13 29  4  0
 14 17  4  0
 15 28  4  0
 16 27  1  0
 18 19  4  0
 24 27  1  0
M  END
$$$$

 Created by Python create_sdf_string function

 29 56  0  0  0  0  0  0  0  0999 V2000
   10.8799   -3.9832   16.2986 P   0  0  0  0  0  0  0  0  0  0  0  0
    9.3107   -6.7010   16.9275 C   0  0  0  0  0  0  0  0  0  0  0  0
    5.2008   -8.6151   14.6532 O   0  0  0  0  0  0  0  0  0  0  0  0
   10.7079   -3.8569   19.5019 C   0  0  0  0  0  0  0  0  0  0  0  0
    8.9192   -3.9977   17.1145 C   0  0  0  0  0  0  0  0  0  0  0  0
    9.5993   -5.4083   20.2450 Cl  0  0  0  0  0  0  0  0  0  0  0  0
   11.8095   -4.1398   20.9266 F   0  0  0  0  0  0  0  0  0  0  0  0
   12.2968   -2.3636   22.7344 C   0  0  0  0  0  0  0  0  0  0  0  0
    5.3917   -7.4008   16.2846 F   0  0  0  0  0  0  0  0  0  0  0  0
   10.7191   -2.7496   24.8626 C   0  0  0  0  0  0  0  0  0  0  0  0
   10.7871   -3.7572   18.4850 C   0  0  0  0  0  0  0  0  0  0  0  0
    8.9880   -4.0388   16.4264 C   0  0  0  0  0  0  0  0  0  0  0  0
    7.8560   -6.2183   16.9681 C   0  0  0  0  0  0  0  0  0  0  0  0
    9.7206   -3.3585   20.3131 N   0  0  0  0  0  0  0  0  0  0  0  0
   10.9078   -5.0075   22.3301 C   0  0  0  0  0  0  0  0  0  0  0  0
   11.5589   -4.9462   22.9271 C   0  0  0  0  0  0  0  0  0  0  0  0
   12.2892   -3.0630   21.9635 N   0  0  0  0  0  0  0  0  0  0  0  0
    8.5841   -8.1168   16.9236 C   0  0  0  0  0  0  0  0  0  0  0  0
   10.5720   -4.7272   17.9378 C   0  0  0  0  0  0  0  0  0  0  0  0
    8.2246   -6.9849   16.4466 C   0  0  0  0  0  0  0  0  0  0  0  0
   10.9306   -3.9616   16.4314 C   0  0  0  0  0  0  0  0  0  0  0  0
    9.1495   -8.6673   19.1537 He  0  0  0  0  0  0  0  0  0  0  0  0
   10.9486   -4.1709   24.4298 He  0  0  0  0  0  0  0  0  0  0  0  0
    7.2398   -7.5360   17.1619 He  0  0  0  0  0  0  0  0  0  0  0  0
    6.3986   -6.8291   17.5955 He  0  0  0  0  0  0  0  0  0  0  0  0
    4.7531   -8.7767   16.6442 He  0  0  0  0  0  0  0  0  0  0  0  0
   11.2585   -2.7382   25.5450 He  0  0  0  0  0  0  0  0  0  0  0  0
   10.4732   -6.5937   19.0833 He  0  0  0  0  0  0  0  0  0  0  0  0
    6.7829   -8.7221   15.6419 He  0  0  0  0  0  0  0  0  0  0  0  0
  1  4  4  0
  1 10  2  0
  1 16  4  0
  2  4  4  0
  2  5  4  0
  2  6  2  0
  2  8  1  0
  2 10  2  0
  2 14  2  0
  2 16  4  0
  2 20  1  0
  3  6  1  0
  3  7  1  0
  3 10  1  0
  3 11  3  0
  3 12  2  0
  3 17  3  0
  4  7  4  0
  4 13  4  0
  4 16  3  0
  4 18  1  0
  4 21  1  0
  5 14  3  0
  6 10  3  0
  6 17  2  0
  6 20  2  0
  7 14  3  0
  7 21  2  0
  8  9  3  0
  8 12  3  0
  8 13  4  0
  8 15  3  0
  8 17  1  0
  8 18  1  0
  9 10  4  0
  9 12  3  0
  9 15  1  0
  9 16  1  0
  9 20  4  0
 10 11  2  0
 10 18  3  0
 11 14  4  0
 11 15  3  0
 13 20  4  0
 14 16  4  0
 14 19  1  0
 14 20  2  0
 15 16  4  0
 15 21  2  0
 16 20  1  0
 17 18  3  0
 17 19  1  0
 18 19  4  0
 18 20  1  0
 19 20  1  0
 19 21  4  0
M  END
$$$$

 Created by Python create_sdf_string function

 29 28  0  0  0  0  0  0  0  0999 V2000
    9.8375   -8.0565   18.7584 C   0  0  0  0  0  0  0  0  0  0  0  0
   11.1758   -3.5698   15.9895 C   0  0  0  0  0  0  0  0  0  0  0  0
    9.0687   -5.9638   16.9628 C   0  0  0  0  0  0  0  0  0  0  0  0
    5.0799   -9.0170   15.4976 C   0  0  0  0  0  0  0  0  0  0  0  0
   11.0844   -4.0417   19.7389 C   0  0  0  0  0  0  0  0  0  0  0  0
    9.4075   -4.6905   16.7071 C   0  0  0  0  0  0  0  0  0  0  0  0
   10.4950   -5.9871   19.9801 C   0  0  0  0  0  0  0  0  0  0  0  0
   11.2722   -4.1245   21.2280 C   0  0  0  0  0  0  0  0  0  0  0  0
   11.1514   -4.1154   24.5242 C   0  0  0  0  0  0  0  0  0  0  0  0
   11.6877   -2.4064   22.9647 C   0  0  0  0  0  0  0  0  0  0  0  0
    4.9242   -7.4853   16.9718 C   0  0  0  0  0  0  0  0  0  0  0  0
   11.0858   -2.9966   25.0669 C   0  0  0  0  0  0  0  0  0  0  0  0
    7.1283   -8.1289   16.5199 C   0  0  0  0  0  0  0  0  0  0  0  0
   10.8580   -3.5956   18.9180 C   0  0  0  0  0  0  0  0  0  0  0  0
    9.3967   -3.8921   15.9697 C   0  0  0  0  0  0  0  0  0  0  0  0
    7.8977   -6.1446   17.1376 C   0  0  0  0  0  0  0  0  0  0  0  0
   10.6177   -3.2897   20.2260 N   0  0  0  0  0  0  0  0  0  0  0  0
   11.3540   -4.4804   22.3517 C   0  0  0  0  0  0  0  0  0  0  0  0
   11.3394   -4.8695   23.4760 C   0  0  0  0  0  0  0  0  0  0  0  0
    6.3988   -7.2786   17.0598 C   0  0  0  0  0  0  0  0  0  0  0  0
    4.5660   -8.3327   16.1261 C   0  0  0  0  0  0  0  0  0  0  0  0
   11.7355   -2.5669   22.5620 N   0  0  0  0  0  0  0  0  0  0  0  0
   11.0909   -2.4511   25.8071 O   0  0  0  0  0  0  0  0  0  0  0  0
    8.5695   -8.1905   16.8412 C   0  0  0  0  0  0  0  0  0  0  0  0
   10.7857   -4.5518   17.8736 C   0  0  0  0  0  0  0  0  0  0  0  0
   10.3356   -6.6589   19.1309 C   0  0  0  0  0  0  0  0  0  0  0  0
    8.7551   -6.9716   16.9423 C   0  0  0  0  0  0  0  0  0  0  0  0
   11.4538   -3.8897   16.7177 C   0  0  0  0  0  0  0  0  0  0  0  0
    6.7190   -9.0160   15.7089 C   0  0  0  0  0  0  0  0  0  0  0  0
  1 26  1  0
  2 15  4  0
  2 28  4  0
  3  6  4  0
  3 16  4  0
  3 27  1  0
  4 21  4  0
  4 29  4  0
  5  8  4  0
  5 14  4  0
  6 15  4  0
  7 26  4  0
  8 18  4  0
  9 12  1  0
  9 19  4  0
 10 22  4  0
 11 20  4  0
 11 21  4  0
 12 23  1  0
 13 20  4  0
 13 24  4  0
 13 29  4  0
 14 17  4  0
 16 20  4  0
 16 27  4  0
 18 19  4  0
 24 27  1  0
 25 28  4  0
M  END
$$$$

 Created by Python create_sdf_string function

 29 62  0  0  0  0  0  0  0  0999 V2000
    9.7030   -8.3518   19.6330 P   0  0  0  0  0  0  0  0  0  0  0  0
   10.5836   -4.3960   15.7534 C   0  0  0  0  0  0  0  0  0  0  0  0
    5.3330   -9.4517   15.3318 S   0  0  0  0  0  0  0  0  0  0  0  0
   10.0399   -4.4757   18.7136 C   0  0  0  0  0  0  0  0  0  0  0  0
    9.7789   -4.7636   15.7012 F   0  0  0  0  0  0  0  0  0  0  0  0
   11.1007   -3.2893   22.6379 C   0  0  0  0  0  0  0  0  0  0  0  0
   10.5538   -5.3065   24.8553 F   0  0  0  0  0  0  0  0  0  0  0  0
   12.2815   -2.0300   22.8915 C   0  0  0  0  0  0  0  0  0  0  0  0
   11.5384   -2.4545   25.3545 N   0  0  0  0  0  0  0  0  0  0  0  0
    6.3145   -7.7392   17.2266 F   0  0  0  0  0  0  0  0  0  0  0  0
   11.0320   -4.0830   18.9234 C   0  0  0  0  0  0  0  0  0  0  0  0
    8.9114   -4.1057   14.9454 C   0  0  0  0  0  0  0  0  0  0  0  0
    7.2906   -5.8531   17.3696 Se  0  0  0  0  0  0  0  0  0  0  0  0
   11.2096   -3.5370   20.7855 Cl  0  0  0  0  0  0  0  0  0  0  0  0
   11.4834   -4.5857   22.5177 P   0  0  0  0  0  0  0  0  0  0  0  0
   11.3966   -5.1978   23.5927 C   0  0  0  0  0  0  0  0  0  0  0  0
    4.8009   -7.5479   17.2184 F   0  0  0  0  0  0  0  0  0  0  0  0
    4.6889   -7.7989   16.3646 C   0  0  0  0  0  0  0  0  0  0  0  0
   11.7329   -2.8257   22.6378 F   0  0  0  0  0  0  0  0  0  0  0  0
   10.1684   -8.2743   16.1627 C   0  0  0  0  0  0  0  0  0  0  0  0
   10.6264   -6.6765   19.2321 C   0  0  0  0  0  0  0  0  0  0  0  0
    8.6366   -6.9051   16.8837 C   0  0  0  0  0  0  0  0  0  0  0  0
    6.7216   -8.4654   14.8686 C   0  0  0  0  0  0  0  0  0  0  0  0
    8.7837   -5.8907   16.8304 He  0  0  0  0  0  0  0  0  0  0  0  0
   10.4754   -5.2536   20.7225 He  0  0  0  0  0  0  0  0  0  0  0  0
    3.8590   -7.0119   17.1576 He  0  0  0  0  0  0  0  0  0  0  0  0
   11.2295   -2.4735   26.0252 He  0  0  0  0  0  0  0  0  0  0  0  0
   10.7575   -3.5497   17.8601 He  0  0  0  0  0  0  0  0  0  0  0  0
   12.4154   -3.4087   15.2804 He  0  0  0  0  0  0  0  0  0  0  0  0
  1  3  3  0
  1  5  3  0
  1 10  2  0
  1 18  1  0
  1 20  1  0
  1 23  1  0
  2  4  1  0
  2  5  3  0
  2  6  4  0
  2  9  1  0
  2 16  4  0
  2 19  4  0
  3  5  3  0
  3  8  2  0
  3  9  4  0
  3 10  3  0
  3 18  2  0
  3 19  2  0
  3 20  2  0
  3 21  4  0
  4 15  1  0
  4 22  4  0
  4 23  3  0
  5  6  4  0
  5 14  1  0
  5 15  1  0
  6 15  4  0
  6 20  3  0
  6 22  1  0
  7  9  1  0
  7 10  4  0
  7 18  2  0
  8 18  2  0
  8 19  3  0
  9 10  4  0
  9 13  1  0
  9 16  4  0
  9 20  1  0
  9 21  3  0
  9 23  2  0
 10 15  1  0
 10 20  4  0
 10 22  4  0
 10 23  4  0
 11 12  2  0
 11 14  4  0
 11 19  4  0
 11 21  4  0
 12 14  2  0
 13 14  4  0
 13 17  4  0
 13 20  1  0
 13 22  4  0
 14 15  4  0
 14 22  2  0
 15 21  1  0
 15 23  4  0
 17 19  2  0
 17 22  3  0
 19 20  3  0
 19 21  4  0
 22 23  3  0
M  END
$$$$

 Created by Python create_sdf_string function

 29 22  0  0  0  0  0  0  0  0999 V2000
    9.9181   -7.8039   18.5445 C   0  0  0  0  0  0  0  0  0  0  0  0
   10.1934   -4.2652   16.2148 C   0  0  0  0  0  0  0  0  0  0  0  0
    8.9655   -5.9526   17.2244 C   0  0  0  0  0  0  0  0  0  0  0  0
    5.0443   -9.0263   15.4010 C   0  0  0  0  0  0  0  0  0  0  0  0
   10.4564   -4.5880   18.3543 C   0  0  0  0  0  0  0  0  0  0  0  0
    9.7517   -4.4916   16.2516 C   0  0  0  0  0  0  0  0  0  0  0  0
   10.6703   -5.3695   20.3676 C   0  0  0  0  0  0  0  0  0  0  0  0
   11.2546   -3.7033   22.4236 C   0  0  0  0  0  0  0  0  0  0  0  0
   11.0687   -4.4992   25.0634 O   0  0  0  0  0  0  0  0  0  0  0  0
   11.6559   -2.2883   23.0524 C   0  0  0  0  0  0  0  0  0  0  0  0
    4.0640   -7.7230   16.9039 C   0  0  0  0  0  0  0  0  0  0  0  0
   11.2971   -3.1892   25.0577 C   0  0  0  0  0  0  0  0  0  0  0  0
    6.5568   -7.8633   16.5326 C   0  0  0  0  0  0  0  0  0  0  0  0
   10.7148   -3.8238   19.0496 C   0  0  0  0  0  0  0  0  0  0  0  0
    9.0862   -3.9245   15.6765 C   0  0  0  0  0  0  0  0  0  0  0  0
    7.4555   -6.3261   17.4387 C   0  0  0  0  0  0  0  0  0  0  0  0
   11.1787   -3.5618   20.4354 C   0  0  0  0  0  0  0  0  0  0  0  0
   11.1710   -4.1552   22.0993 C   0  0  0  0  0  0  0  0  0  0  0  0
   11.1566   -4.8214   23.5267 C   0  0  0  0  0  0  0  0  0  0  0  0
    5.4302   -7.3382   17.1460 C   0  0  0  0  0  0  0  0  0  0  0  0
    4.5885   -8.5547   16.0945 C   0  0  0  0  0  0  0  0  0  0  0  0
   11.5825   -2.4656   23.0328 C   0  0  0  0  0  0  0  0  0  0  0  0
   11.3709   -2.5191   25.8287 O   0  0  0  0  0  0  0  0  0  0  0  0
    9.0956   -8.1831   17.0227 C   0  0  0  0  0  0  0  0  0  0  0  0
   11.1149   -3.3637   17.3446 C   0  0  0  0  0  0  0  0  0  0  0  0
   10.2366   -6.1642   19.1167 C   0  0  0  0  0  0  0  0  0  0  0  0
    8.3875   -6.8067   17.0437 C   0  0  0  0  0  0  0  0  0  0  0  0
   11.6083   -3.5160   15.7022 N   0  0  0  0  0  0  0  0  0  0  0  0
    6.8400   -8.5886   15.9456 C   0  0  0  0  0  0  0  0  0  0  0  0
  1 24  1  0
  1 26  4  0
  2  6  1  0
  3  6  4  0
  3 16  4  0
  3 27  1  0
  4 21  4  0
  4 29  4  0
  5 14  4  0
  7 26  4  0
  8 18  4  0
  9 12  1  0
 10 22  4  0
 11 20  4  0
 11 21  4  0
 12 23  1  0
 13 20  4  0
 13 29  4  0
 14 17  4  0
 16 20  4  0
 16 27  4  0
 17 18  4  0
M  END
$$$$

 Created by Python create_sdf_string function

 29 46  0  0  0  0  0  0  0  0999 V2000
    9.6137   -8.7815   20.0548 C   0  0  0  0  0  0  0  0  0  0  0  0
    9.6305   -6.0816   17.1507 S   0  0  0  0  0  0  0  0  0  0  0  0
    5.3594   -8.8218   15.1901 C   0  0  0  0  0  0  0  0  0  0  0  0
   10.4482   -4.5046   18.2296 C   0  0  0  0  0  0  0  0  0  0  0  0
   11.6810   -3.4900   23.5962 I   0  0  0  0  0  0  0  0  0  0  0  0
    3.8990   -7.3605   16.6844 C   0  0  0  0  0  0  0  0  0  0  0  0
   10.9968   -3.0300   24.0189 C   0  0  0  0  0  0  0  0  0  0  0  0
    6.2048   -8.4472   16.3491 C   0  0  0  0  0  0  0  0  0  0  0  0
   10.7532   -3.7865   19.0981 C   0  0  0  0  0  0  0  0  0  0  0  0
    9.6667   -4.7718   15.4393 O   0  0  0  0  0  0  0  0  0  0  0  0
    7.5515   -5.4064   16.3658 P   0  0  0  0  0  0  0  0  0  0  0  0
   11.5731   -4.6864   23.6027 C   0  0  0  0  0  0  0  0  0  0  0  0
    6.1054   -7.4524   17.7759 N   0  0  0  0  0  0  0  0  0  0  0  0
   11.3542   -2.4731   25.8062 F   0  0  0  0  0  0  0  0  0  0  0  0
    8.9632   -8.5029   17.9843 C   0  0  0  0  0  0  0  0  0  0  0  0
   11.2804   -3.0760   16.5869 C   0  0  0  0  0  0  0  0  0  0  0  0
   10.2172   -6.3186   19.1607 C   0  0  0  0  0  0  0  0  0  0  0  0
    8.4361   -6.6121   17.5224 C   0  0  0  0  0  0  0  0  0  0  0  0
   11.4044   -4.1228   15.5170 N   0  0  0  0  0  0  0  0  0  0  0  0
    9.5454   -4.0284   16.2085 He  0  0  0  0  0  0  0  0  0  0  0  0
   10.1758   -4.5744   15.6538 He  0  0  0  0  0  0  0  0  0  0  0  0
   11.9100   -6.1264   20.5050 He  0  0  0  0  0  0  0  0  0  0  0  0
   11.7927   -3.6775   22.5724 He  0  0  0  0  0  0  0  0  0  0  0  0
   11.3361   -4.8748   24.5543 He  0  0  0  0  0  0  0  0  0  0  0  0
   10.4750   -3.1948   20.6303 He  0  0  0  0  0  0  0  0  0  0  0  0
   10.8993   -4.4105   21.7863 He  0  0  0  0  0  0  0  0  0  0  0  0
    4.5438   -7.9791   15.8313 He  0  0  0  0  0  0  0  0  0  0  0  0
   11.7279   -1.8778   23.1666 He  0  0  0  0  0  0  0  0  0  0  0  0
    5.7845   -8.4925   14.8697 He  0  0  0  0  0  0  0  0  0  0  0  0
  1  2  3  0
  1  3  4  0
  1  9  3  0
  1 14  4  0
  1 15  4  0
  1 16  2  0
  1 18  2  0
  1 19  2  0
  2  7  4  0
  2 11  4  0
  2 16  4  0
  2 18  1  0
  3  8  1  0
  3 16  4  0
  4  5  3  0
  4  9  1  0
  4 18  1  0
  5 11  4  0
  5 14  3  0
  5 15  4  0
  6  7  4  0
  6  8  3  0
  6 10  2  0
  6 13  4  0
  6 18  3  0
  7  8  3  0
  7  9  3  0
  7 12  2  0
  7 14  4  0
  7 17  4  0
  8 10  4  0
  8 13  4  0
  8 18  2  0
  8 19  1  0
 10 14  3  0
 10 19  2  0
 11 13  4  0
 11 17  4  0
 11 18  4  0
 12 13  3  0
 12 15  3  0
 12 18  4  0
 13 16  4  0
 13 17  1  0
 15 17  4  0
 16 19  1  0
M  END
$$$$

 Created by Python create_sdf_string function

 29 30  0  0  0  0  0  0  0  0999 V2000
    9.7282   -7.8907   18.7178 C   0  0  0  0  0  0  0  0  0  0  0  0
    9.1932   -3.5716   16.0400 O   0  0  0  0  0  0  0  0  0  0  0  0
    9.2794   -5.8589   17.3315 C   0  0  0  0  0  0  0  0  0  0  0  0
    5.3617   -8.9033   15.2622 C   0  0  0  0  0  0  0  0  0  0  0  0
   10.3392   -5.0833   18.4307 C   0  0  0  0  0  0  0  0  0  0  0  0
    9.9416   -4.2959   16.1517 S   0  0  0  0  0  0  0  0  0  0  0  0
   11.2669   -5.4455   20.9247 C   0  0  0  0  0  0  0  0  0  0  0  0
   11.3005   -3.8776   22.5492 C   0  0  0  0  0  0  0  0  0  0  0  0
   11.2324   -4.6451   24.6740 C   0  0  0  0  0  0  0  0  0  0  0  0
   11.2872   -2.7362   23.4417 C   0  0  0  0  0  0  0  0  0  0  0  0
    4.5284   -7.7036   16.9706 C   0  0  0  0  0  0  0  0  0  0  0  0
   11.1489   -3.3820   24.8791 C   0  0  0  0  0  0  0  0  0  0  0  0
    6.6859   -7.8775   16.7359 C   0  0  0  0  0  0  0  0  0  0  0  0
   10.7151   -3.8253   18.9656 C   0  0  0  0  0  0  0  0  0  0  0  0
   10.0719   -4.7101   15.3010 O   0  0  0  0  0  0  0  0  0  0  0  0
    8.4549   -6.0603   16.7660 C   0  0  0  0  0  0  0  0  0  0  0  0
   10.9667   -3.3912   20.0977 C   0  0  0  0  0  0  0  0  0  0  0  0
   11.1753   -4.0557   21.2400 C   0  0  0  0  0  0  0  0  0  0  0  0
   11.4004   -5.0360   23.2187 C   0  0  0  0  0  0  0  0  0  0  0  0
    5.8915   -7.4733   17.3383 C   0  0  0  0  0  0  0  0  0  0  0  0
    4.2823   -8.4027   15.9456 C   0  0  0  0  0  0  0  0  0  0  0  0
   11.3253   -2.3308   23.0618 C   0  0  0  0  0  0  0  0  0  0  0  0
   11.0651   -2.5119   25.9683 F   0  0  0  0  0  0  0  0  0  0  0  0
    8.7765   -8.1297   17.9617 C   0  0  0  0  0  0  0  0  0  0  0  0
   11.3684   -3.3406   17.1396 C   0  0  0  0  0  0  0  0  0  0  0  0
   10.5312   -6.3163   19.5108 C   0  0  0  0  0  0  0  0  0  0  0  0
    8.3304   -6.8603   17.1609 C   0  0  0  0  0  0  0  0  0  0  0  0
   11.2538   -3.8054   16.0817 N   0  0  0  0  0  0  0  0  0  0  0  0
    6.4549   -8.5510   15.7307 C   0  0  0  0  0  0  0  0  0  0  0  0
  1 24  4  0
  1 26  4  0
  2  6  2  0
  3  5  4  0
  3 16  4  0
  3 27  1  0
  4 21  4  0
  4 29  4  0
  5 14  4  0
  5 26  4  0
  6 15  2  0
  6 28  1  0
  7 18  4  0
  7 26  4  0
  8 18  1  0
  8 19  4  0
  9 12  4  0
  9 19  4  0
 10 12  4  0
 10 22  4  0
 11 20  4  0
 11 21  4  0
 12 23  1  0
 13 20  4  0
 13 29  4  0
 14 17  4  0
 16 27  4  0
 17 18  4  0
 24 27  4  0
 25 28  1  0
M  END
$$$$

 Created by Python create_sdf_string function

 29 83  0  0  0  0  0  0  0  0999 V2000
    9.7772   -7.8147   18.1002 C   0  0  0  0  0  0  0  0  0  0  0  0
    9.3330   -4.2789   16.3925 Cl  0  0  0  0  0  0  0  0  0  0  0  0
    8.8691   -6.8186   17.7974 N   0  0  0  0  0  0  0  0  0  0  0  0
    4.9424   -9.3104   14.9203 C   0  0  0  0  0  0  0  0  0  0  0  0
    9.3955   -3.1819   16.1062 S   0  0  0  0  0  0  0  0  0  0  0  0
   12.3915   -5.1384   20.1497 N   0  0  0  0  0  0  0  0  0  0  0  0
   10.9934   -4.2942   24.5954 C   0  0  0  0  0  0  0  0  0  0  0  0
   11.3896   -1.8918   23.6367 Br  0  0  0  0  0  0  0  0  0  0  0  0
    4.1790   -7.1110   16.7148 C   0  0  0  0  0  0  0  0  0  0  0  0
   11.5413   -3.3915   25.2250 C   0  0  0  0  0  0  0  0  0  0  0  0
   10.6746   -4.0203   18.8527 C   0  0  0  0  0  0  0  0  0  0  0  0
   10.1071   -4.0696   14.9599 O   0  0  0  0  0  0  0  0  0  0  0  0
    8.4941   -5.9208   17.3305 O   0  0  0  0  0  0  0  0  0  0  0  0
   10.8952   -2.4724   18.6853 C   0  0  0  0  0  0  0  0  0  0  0  0
   11.3436   -4.2530   21.1827 C   0  0  0  0  0  0  0  0  0  0  0  0
   11.4487   -4.8206   23.3382 C   0  0  0  0  0  0  0  0  0  0  0  0
    6.2404   -7.9549   18.1393 C   0  0  0  0  0  0  0  0  0  0  0  0
    4.2341   -8.3158   15.2258 N   0  0  0  0  0  0  0  0  0  0  0  0
   10.5226   -2.1219   23.1036 C   0  0  0  0  0  0  0  0  0  0  0  0
   10.8059   -2.4367   26.0090 F   0  0  0  0  0  0  0  0  0  0  0  0
    8.2933   -7.1596   18.1674 C   0  0  0  0  0  0  0  0  0  0  0  0
   11.9139   -3.3699   16.5814 C   0  0  0  0  0  0  0  0  0  0  0  0
   10.4412   -6.3719   19.4690 C   0  0  0  0  0  0  0  0  0  0  0  0
    8.5755   -6.7315   17.4250 C   0  0  0  0  0  0  0  0  0  0  0  0
   11.5205   -4.0930   16.9180 N   0  0  0  0  0  0  0  0  0  0  0  0
    6.1881   -9.0114   15.9647 O   0  0  0  0  0  0  0  0  0  0  0  0
   10.2000   -6.2410   18.7697 He  0  0  0  0  0  0  0  0  0  0  0  0
   12.5910   -4.0107   21.9998 He  0  0  0  0  0  0  0  0  0  0  0  0
    7.4036   -8.1149   16.8077 He  0  0  0  0  0  0  0  0  0  0  0  0
  1 17  4  0
  1 21  4  0
  2  5  2  0
  2  6  3  0
  2  9  3  0
  2 14  4  0
  2 15  1  0
  2 17  4  0
  2 21  2  0
  3  6  2  0
  3 10  1  0
  3 12  3  0
  3 15  2  0
  3 17  1  0
  3 19  2  0
  3 21  4  0
  3 23  2  0
  3 24  1  0
  4  6  1  0
  4  8  2  0
  4 24  1  0
  4 26  4  0
  5  7  2  0
  5 11  4  0
  5 12  2  0
  5 14  1  0
  5 22  1  0
  5 25  1  0
  6 15  4  0
  6 16  3  0
  6 22  2  0
  6 23  4  0
  7 10  4  0
  7 16  1  0
  7 18  1  0
  7 26  3  0
  8  9  2  0
  8 11  1  0
  8 15  2  0
  8 18  4  0
  8 19  4  0
  8 22  2  0
  8 23  4  0
  8 24  2  0
  8 26  4  0
  9 15  4  0
  9 16  1  0
  9 17  4  0
  9 20  4  0
  9 21  4  0
  9 22  4  0
 10 16  1  0
 10 18  4  0
 10 20  3  0
 10 24  2  0
 11 12  2  0
 11 14  4  0
 11 24  1  0
 11 25  1  0
 12 17  1  0
 12 23  3  0
 12 25  2  0
 12 26  1  0
 13 17  1  0
 13 21  4  0
 13 22  4  0
 13 24  4  0
 14 23  1  0
 15 19  3  0
 15 21  4  0
 16 18  4  0
 16 19  1  0
 16 25  1  0
 17 24  4  0
 17 26  2  0
 18 19  1  0
 18 20  1  0
 18 24  4  0
 19 24  1  0
 21 23  4  0
 21 24  2  0
 22 26  4  0
 23 25  3  0
M  END
$$$$

 Created by Python create_sdf_string function

 29 31  0  0  0  0  0  0  0  0999 V2000
    9.6824   -7.9190   18.5057 C   0  0  0  0  0  0  0  0  0  0  0  0
    8.9677   -3.7351   16.0027 O   0  0  0  0  0  0  0  0  0  0  0  0
    9.3258   -6.2832   17.8767 N   0  0  0  0  0  0  0  0  0  0  0  0
    5.2991   -9.1842   15.2916 C   0  0  0  0  0  0  0  0  0  0  0  0
   10.4851   -5.3818   18.7696 C   0  0  0  0  0  0  0  0  0  0  0  0
   10.2250   -3.7622   16.2398 S   0  0  0  0  0  0  0  0  0  0  0  0
   11.7516   -5.3603   20.7422 C   0  0  0  0  0  0  0  0  0  0  0  0
   11.4835   -3.7284   22.3456 C   0  0  0  0  0  0  0  0  0  0  0  0
   11.4286   -4.3520   24.5962 C   0  0  0  0  0  0  0  0  0  0  0  0
   10.8356   -2.2371   23.7392 C   0  0  0  0  0  0  0  0  0  0  0  0
    4.4182   -7.7669   16.8603 C   0  0  0  0  0  0  0  0  0  0  0  0
   11.0296   -3.0677   24.9687 C   0  0  0  0  0  0  0  0  0  0  0  0
    6.7336   -8.0453   16.7314 C   0  0  0  0  0  0  0  0  0  0  0  0
   10.9156   -4.1363   18.5844 C   0  0  0  0  0  0  0  0  0  0  0  0
   10.4707   -3.7714   15.1183 O   0  0  0  0  0  0  0  0  0  0  0  0
    8.4315   -6.1640   16.9696 C   0  0  0  0  0  0  0  0  0  0  0  0
   11.1848   -3.3973   19.5622 C   0  0  0  0  0  0  0  0  0  0  0  0
   11.5122   -4.1082   20.8682 C   0  0  0  0  0  0  0  0  0  0  0  0
   11.6779   -4.6109   23.3898 C   0  0  0  0  0  0  0  0  0  0  0  0
    5.6767   -7.6089   17.2179 C   0  0  0  0  0  0  0  0  0  0  0  0
    4.2760   -8.5529   15.8627 C   0  0  0  0  0  0  0  0  0  0  0  0
   11.1098   -2.5500   22.7247 C   0  0  0  0  0  0  0  0  0  0  0  0
   10.7417   -2.5295   26.1211 F   0  0  0  0  0  0  0  0  0  0  0  0
    8.7136   -7.5730   17.7026 C   0  0  0  0  0  0  0  0  0  0  0  0
   11.8061   -3.0802   16.3534 C   0  0  0  0  0  0  0  0  0  0  0  0
   10.9459   -5.9953   19.8658 C   0  0  0  0  0  0  0  0  0  0  0  0
    8.4627   -7.0025   17.3097 C   0  0  0  0  0  0  0  0  0  0  0  0
   10.5816   -4.2028   17.3596 N   0  0  0  0  0  0  0  0  0  0  0  0
    6.5381   -8.9593   15.6931 C   0  0  0  0  0  0  0  0  0  0  0  0
  1 24  4  0
  2  6  2  0
  3  5  4  0
  3 16  4  0
  3 27  1  0
  4 21  4  0
  4 29  4  0
  5 14  4  0
  5 26  4  0
  6 15  2  0
  6 25  1  0
  6 28  1  0
  7 18  4  0
  7 26  4  0
  8 18  1  0
  8 19  4  0
  8 22  4  0
  9 12  4  0
  9 19  4  0
 10 12  4  0
 10 22  4  0
 11 20  4  0
 11 21  4  0
 12 23  1  0
 13 20  4  0
 13 29  4  0
 14 17  4  0
 14 28  1  0
 16 27  4  0
 17 18  4  0
 24 27  4  0
M  END
$$$$

 Created by Python create_sdf_string function

 29 67  0  0  0  0  0  0  0  0999 V2000
    9.3507   -7.9221   19.0650 C   0  0  0  0  0  0  0  0  0  0  0  0
    8.6054   -3.9336   16.0832 O   0  0  0  0  0  0  0  0  0  0  0  0
    8.8256   -5.5237   17.9663 C   0  0  0  0  0  0  0  0  0  0  0  0
   10.0394   -5.4024   18.4364 P   0  0  0  0  0  0  0  0  0  0  0  0
   10.5486   -3.0246   15.7105 S   0  0  0  0  0  0  0  0  0  0  0  0
   11.9603   -5.3010   20.6700 F   0  0  0  0  0  0  0  0  0  0  0  0
   12.1302   -3.7766   21.5558 C   0  0  0  0  0  0  0  0  0  0  0  0
   11.5126   -4.1625   25.8410 N   0  0  0  0  0  0  0  0  0  0  0  0
    4.0177   -6.8205   16.2899 C   0  0  0  0  0  0  0  0  0  0  0  0
   11.1512   -2.1876   24.2952 C   0  0  0  0  0  0  0  0  0  0  0  0
    7.8212   -8.3151   15.5917 C   0  0  0  0  0  0  0  0  0  0  0  0
    8.3002   -6.3762   17.4097 C   0  0  0  0  0  0  0  0  0  0  0  0
   10.2727   -4.2297   18.7171 C   0  0  0  0  0  0  0  0  0  0  0  0
   11.5427   -4.2783   20.8273 C   0  0  0  0  0  0  0  0  0  0  0  0
   11.4176   -4.3676   23.3650 C   0  0  0  0  0  0  0  0  0  0  0  0
    6.2171   -8.0346   16.6616 F   0  0  0  0  0  0  0  0  0  0  0  0
    4.1819   -8.6706   16.0620 C   0  0  0  0  0  0  0  0  0  0  0  0
   10.7273   -2.3722   26.2771 F   0  0  0  0  0  0  0  0  0  0  0  0
    8.7301   -7.4071   17.7158 C   0  0  0  0  0  0  0  0  0  0  0  0
    8.2813   -6.7870   17.2138 C   0  0  0  0  0  0  0  0  0  0  0  0
   10.9765   -3.2894   17.8596 N   0  0  0  0  0  0  0  0  0  0  0  0
    6.9088   -8.1133   16.3868 C   0  0  0  0  0  0  0  0  0  0  0  0
    4.5039   -8.1689   15.5784 He  0  0  0  0  0  0  0  0  0  0  0  0
    9.8875   -2.2070   24.8519 He  0  0  0  0  0  0  0  0  0  0  0  0
   10.8482   -3.9437   18.5257 He  0  0  0  0  0  0  0  0  0  0  0  0
   10.4106   -3.4819   15.0933 He  0  0  0  0  0  0  0  0  0  0  0  0
   11.6209   -2.4539   22.5288 He  0  0  0  0  0  0  0  0  0  0  0  0
   11.5579   -4.4154   15.5558 He  0  0  0  0  0  0  0  0  0  0  0  0
   11.0324   -6.0021   19.6428 He  0  0  0  0  0  0  0  0  0  0  0  0
  1  2  2  0
  1  3  2  0
  1  5  4  0
  1  6  2  0
  1  7  3  0
  1 10  4  0
  1 12  4  0
  1 14  3  0
  1 15  2  0
  1 17  2  0
  1 19  2  0
  1 20  4  0
  1 22  1  0
  2  3  2  0
  2  5  2  0
  2  9  4  0
  2 11  3  0
  2 12  2  0
  2 14  3  0
  2 16  2  0
  2 17  1  0
  2 18  4  0
  3  4  2  0
  3  5  3  0
  3  6  1  0
  3 12  4  0
  3 20  1  0
  3 21  4  0
  3 22  4  0
  4  5  3  0
  4 11  1  0
  4 17  3  0
  5  9  4  0
  5 20  4  0
  6 10  1  0
  6 12  1  0
  6 14  4  0
  6 17  3  0
  7 15  2  0
  7 18  3  0
  7 20  2  0
  8 10  4  0
  8 12  1  0
  8 13  3  0
  8 14  3  0
  8 15  4  0
  8 18  1  0
  8 21  3  0
  9 12  3  0
  9 17  4  0
  9 19  2  0
  9 21  4  0
 10 11  4  0
 10 18  1  0
 10 20  2  0
 10 21  1  0
 11 16  4  0
 11 21  1  0
 11 22  4  0
 12 19  1  0
 12 20  4  0
 13 14  4  0
 13 18  1  0
 13 19  3  0
 14 17  4  0
 19 20  4  0
 19 21  4  0
M  END
$$$$

 Created by Python create_sdf_string function

 29 32  0  0  0  0  0  0  0  0999 V2000
    9.5095   -7.8310   18.3265 C   0  0  0  0  0  0  0  0  0  0  0  0
    8.8250   -3.7276   15.6255 O   0  0  0  0  0  0  0  0  0  0  0  0
    9.3824   -5.9617   17.8821 C   0  0  0  0  0  0  0  0  0  0  0  0
    4.9045   -9.0006   15.4304 C   0  0  0  0  0  0  0  0  0  0  0  0
   10.3725   -5.3395   18.7483 C   0  0  0  0  0  0  0  0  0  0  0  0
   10.2663   -3.7163   16.0904 S   0  0  0  0  0  0  0  0  0  0  0  0
   11.5217   -5.3464   20.9291 C   0  0  0  0  0  0  0  0  0  0  0  0
   11.3432   -3.6688   22.2752 C   0  0  0  0  0  0  0  0  0  0  0  0
   11.3229   -4.0178   24.7605 N   0  0  0  0  0  0  0  0  0  0  0  0
   10.4252   -2.2280   24.3267 C   0  0  0  0  0  0  0  0  0  0  0  0
    5.0833   -7.3461   16.7918 C   0  0  0  0  0  0  0  0  0  0  0  0
   10.6396   -2.5143   24.7033 C   0  0  0  0  0  0  0  0  0  0  0  0
    6.7459   -8.2523   15.8923 C   0  0  0  0  0  0  0  0  0  0  0  0
   10.7780   -3.9913   18.7153 C   0  0  0  0  0  0  0  0  0  0  0  0
   10.7559   -3.0494   15.0504 O   0  0  0  0  0  0  0  0  0  0  0  0
    8.2854   -6.0945   17.1470 C   0  0  0  0  0  0  0  0  0  0  0  0
   11.1467   -3.3848   19.8499 C   0  0  0  0  0  0  0  0  0  0  0  0
   11.3293   -4.0363   21.0154 C   0  0  0  0  0  0  0  0  0  0  0  0
   11.5297   -4.3471   23.4614 C   0  0  0  0  0  0  0  0  0  0  0  0
    6.3468   -7.5921   16.6591 C   0  0  0  0  0  0  0  0  0  0  0  0
    4.2264   -8.1478   16.0754 C   0  0  0  0  0  0  0  0  0  0  0  0
   10.9408   -2.4532   22.8509 C   0  0  0  0  0  0  0  0  0  0  0  0
   10.4458   -2.2636   26.3259 F   0  0  0  0  0  0  0  0  0  0  0  0
    8.6779   -7.8464   17.7785 C   0  0  0  0  0  0  0  0  0  0  0  0
   11.6398   -4.3867   16.1136 C   0  0  0  0  0  0  0  0  0  0  0  0
   10.8383   -6.0628   19.8660 C   0  0  0  0  0  0  0  0  0  0  0  0
    7.7613   -7.2255   17.1455 C   0  0  0  0  0  0  0  0  0  0  0  0
   10.5864   -3.4087   17.5315 N   0  0  0  0  0  0  0  0  0  0  0  0
    6.2487   -8.8931   15.4666 C   0  0  0  0  0  0  0  0  0  0  0  0
  1  3  4  0
  1 24  4  0
  2  6  2  0
  3  5  4  0
  3 16  4  0
  4 21  4  0
  4 29  4  0
  5 14  4  0
  5 26  4  0
  6 15  2  0
  6 25  1  0
  6 28  1  0
  7 18  4  0
  7 26  4  0
  8 18  1  0
  8 19  4  0
  8 22  4  0
  9 19  4  0
 10 12  4  0
 10 22  4  0
 11 20  4  0
 11 21  4  0
 12 23  1  0
 13 20  4  0
 13 29  4  0
 14 17  4  0
 14 28  1  0
 16 27  4  0
 17 18  4  0
 20 27  1  0
 24 27  4  0
 25 28  1  0
M  END
$$$$

 Created by Python create_sdf_string function

 29 64  0  0  0  0  0  0  0  0999 V2000
    7.8792   -4.1555   14.9305 O   0  0  0  0  0  0  0  0  0  0  0  0
    9.9003   -5.4563   18.8771 C   0  0  0  0  0  0  0  0  0  0  0  0
   10.0303   -3.7158   15.9208 S   0  0  0  0  0  0  0  0  0  0  0  0
   11.4375   -5.3326   21.4542 C   0  0  0  0  0  0  0  0  0  0  0  0
   11.1590   -3.7823   22.4491 C   0  0  0  0  0  0  0  0  0  0  0  0
   12.3970   -4.5621   25.2864 C   0  0  0  0  0  0  0  0  0  0  0  0
   11.3477   -2.1409   24.3485 C   0  0  0  0  0  0  0  0  0  0  0  0
    7.4695   -8.6442   15.5903 S   0  0  0  0  0  0  0  0  0  0  0  0
   10.8699   -3.7466   18.7498 C   0  0  0  0  0  0  0  0  0  0  0  0
    8.4084   -5.8502   16.7634 C   0  0  0  0  0  0  0  0  0  0  0  0
   11.4820   -2.9119   20.2184 C   0  0  0  0  0  0  0  0  0  0  0  0
   11.0322   -4.2263   21.2158 C   0  0  0  0  0  0  0  0  0  0  0  0
    6.9686   -7.2720   17.2707 N   0  0  0  0  0  0  0  0  0  0  0  0
    3.4068   -8.3683   15.7777 N   0  0  0  0  0  0  0  0  0  0  0  0
   10.8582   -2.2074   26.4732 F   0  0  0  0  0  0  0  0  0  0  0  0
    8.6452   -7.6773   17.7639 I   0  0  0  0  0  0  0  0  0  0  0  0
   12.3560   -3.6840   15.1424 C   0  0  0  0  0  0  0  0  0  0  0  0
   11.0430   -5.6923   19.7444 C   0  0  0  0  0  0  0  0  0  0  0  0
    7.4709   -7.4238   17.5063 C   0  0  0  0  0  0  0  0  0  0  0  0
    9.6060   -3.6807   17.2721 N   0  0  0  0  0  0  0  0  0  0  0  0
    5.1898   -9.2249   15.9893 C   0  0  0  0  0  0  0  0  0  0  0  0
    9.9668   -7.3982   17.9388 He  0  0  0  0  0  0  0  0  0  0  0  0
    9.6249   -5.3990   18.8497 He  0  0  0  0  0  0  0  0  0  0  0  0
    5.2464   -8.9200   15.3416 He  0  0  0  0  0  0  0  0  0  0  0  0
    5.2855   -6.9172   17.9092 He  0  0  0  0  0  0  0  0  0  0  0  0
   10.0247   -2.3714   24.9724 He  0  0  0  0  0  0  0  0  0  0  0  0
   10.6458   -3.5876   15.0673 He  0  0  0  0  0  0  0  0  0  0  0  0
   11.3379   -3.9977   24.1487 He  0  0  0  0  0  0  0  0  0  0  0  0
   10.7901   -2.5398   22.6372 He  0  0  0  0  0  0  0  0  0  0  0  0
  1  3  2  0
  1  7  4  0
  1  8  2  0
  1  9  3  0
  1 13  1  0
  1 19  2  0
  2  3  3  0
  2  7  1  0
  2  9  1  0
  2 10  3  0
  2 13  2  0
  2 15  1  0
  2 18  2  0
  2 19  1  0
  3 12  1  0
  3 17  1  0
  3 20  1  0
  4  6  2  0
  4 18  1  0
  4 21  3  0
  5  6  3  0
  5  8  2  0
  5  9  2  0
  5 10  1  0
  5 11  2  0
  5 18  2  0
  5 20  2  0
  6  7  4  0
  6  8  2  0
  6 10  1  0
  6 11  4  0
  6 13  2  0
  6 15  1  0
  6 16  1  0
  6 17  2  0
  6 18  4  0
  7  9  3  0
  7 12  4  0
  7 17  4  0
  7 21  4  0
  8 10  3  0
  8 15  4  0
  8 17  3  0
  8 20  3  0
  9 11  4  0
  9 12  3  0
  9 20  1  0
 10 11  3  0
 10 12  3  0
 10 14  2  0
 10 18  4  0
 10 21  3  0
 11 12  4  0
 11 14  3  0
 11 21  1  0
 12 15  1  0
 13 15  3  0
 13 19  3  0
 14 21  3  0
 15 19  2  0
 16 17  1  0
 16 18  3  0
 16 19  2  0
 16 21  1  0
M  END
$$$$

 Created by Python create_sdf_string function

 29 33  0  0  0  0  0  0  0  0999 V2000
    9.7483   -7.6065   18.3466 C   0  0  0  0  0  0  0  0  0  0  0  0
    8.4229   -4.0485   15.4729 O   0  0  0  0  0  0  0  0  0  0  0  0
    9.5062   -6.1584   17.9742 C   0  0  0  0  0  0  0  0  0  0  0  0
    4.8805   -8.9124   15.7133 C   0  0  0  0  0  0  0  0  0  0  0  0
   10.4286   -5.2314   18.9547 C   0  0  0  0  0  0  0  0  0  0  0  0
    9.9154   -3.8442   15.9917 S   0  0  0  0  0  0  0  0  0  0  0  0
   11.2080   -5.3237   20.9921 C   0  0  0  0  0  0  0  0  0  0  0  0
   11.1516   -3.5488   22.6550 C   0  0  0  0  0  0  0  0  0  0  0  0
   11.3583   -3.9359   24.9736 C   0  0  0  0  0  0  0  0  0  0  0  0
   10.5283   -1.9896   24.2021 C   0  0  0  0  0  0  0  0  0  0  0  0
    5.3492   -7.4996   17.3621 C   0  0  0  0  0  0  0  0  0  0  0  0
   10.8991   -2.7381   25.2709 C   0  0  0  0  0  0  0  0  0  0  0  0
    6.9439   -8.7552   15.8188 C   0  0  0  0  0  0  0  0  0  0  0  0
   10.5999   -3.8524   18.6800 C   0  0  0  0  0  0  0  0  0  0  0  0
   10.3209   -3.4311   14.9083 O   0  0  0  0  0  0  0  0  0  0  0  0
    8.4574   -5.9828   17.2109 C   0  0  0  0  0  0  0  0  0  0  0  0
   11.0393   -3.3065   20.0875 C   0  0  0  0  0  0  0  0  0  0  0  0
   11.1833   -4.0309   21.2323 C   0  0  0  0  0  0  0  0  0  0  0  0
   11.4607   -4.3685   23.7393 C   0  0  0  0  0  0  0  0  0  0  0  0
    6.6201   -7.7330   16.9519 C   0  0  0  0  0  0  0  0  0  0  0  0
    4.1842   -8.2112   16.6255 N   0  0  0  0  0  0  0  0  0  0  0  0
   10.7427   -2.4202   22.9613 C   0  0  0  0  0  0  0  0  0  0  0  0
   10.7527   -2.2275   26.5282 F   0  0  0  0  0  0  0  0  0  0  0  0
    9.0065   -8.0440   17.6875 C   0  0  0  0  0  0  0  0  0  0  0  0
   11.7636   -3.8899   16.0684 C   0  0  0  0  0  0  0  0  0  0  0  0
   10.8531   -5.9740   19.8388 C   0  0  0  0  0  0  0  0  0  0  0  0
    7.8661   -7.2237   17.2847 C   0  0  0  0  0  0  0  0  0  0  0  0
   10.1556   -3.4448   17.3891 N   0  0  0  0  0  0  0  0  0  0  0  0
    5.6199   -8.9825   15.4869 C   0  0  0  0  0  0  0  0  0  0  0  0
  1  3  4  0
  1 24  4  0
  2  6  2  0
  3  5  4  0
  3 16  4  0
  4 21  4  0
  4 29  4  0
  5 14  4  0
  5 26  4  0
  6 15  2  0
  6 25  1  0
  6 28  1  0
  7 18  4  0
  7 26  4  0
  8 18  1  0
  8 19  4  0
  8 22  4  0
  9 12  4  0
  9 19  4  0
 10 12  4  0
 10 22  4  0
 11 20  4  0
 11 21  4  0
 12 23  1  0
 13 20  4  0
 13 29  4  0
 14 17  4  0
 14 28  1  0
 16 27  4  0
 17 18  4  0
 20 27  1  0
 24 27  4  0
 25 28  1  0
M  END
$$$$

 Created by Python create_sdf_string function

 29 67  0  0  0  0  0  0  0  0999 V2000
    9.5295   -7.5984   17.3755 C   0  0  0  0  0  0  0  0  0  0  0  0
    8.9412   -4.1559   15.0402 O   0  0  0  0  0  0  0  0  0  0  0  0
    8.7290   -5.4955   17.9137 C   0  0  0  0  0  0  0  0  0  0  0  0
    5.5033   -8.9364   16.0920 C   0  0  0  0  0  0  0  0  0  0  0  0
    9.7999   -5.2152   19.8299 F   0  0  0  0  0  0  0  0  0  0  0  0
   10.3137   -4.6294   15.7464 I   0  0  0  0  0  0  0  0  0  0  0  0
   11.7925   -3.5181   22.4117 C   0  0  0  0  0  0  0  0  0  0  0  0
   10.9298   -3.5379   25.1914 C   0  0  0  0  0  0  0  0  0  0  0  0
   10.4374   -2.2049   23.9579 P   0  0  0  0  0  0  0  0  0  0  0  0
    4.8750   -8.4268   16.5455 C   0  0  0  0  0  0  0  0  0  0  0  0
    7.1208   -9.3315   15.4710 C   0  0  0  0  0  0  0  0  0  0  0  0
   10.5280   -3.9463   18.8030 C   0  0  0  0  0  0  0  0  0  0  0  0
    9.6868   -4.2516   13.8893 Cl  0  0  0  0  0  0  0  0  0  0  0  0
    8.4679   -6.6850   17.5182 C   0  0  0  0  0  0  0  0  0  0  0  0
    9.9764   -1.8677   20.0237 C   0  0  0  0  0  0  0  0  0  0  0  0
   11.1152   -3.9135   21.1987 C   0  0  0  0  0  0  0  0  0  0  0  0
   11.5901   -4.4228   23.5727 C   0  0  0  0  0  0  0  0  0  0  0  0
   10.7338   -2.2896   26.4655 F   0  0  0  0  0  0  0  0  0  0  0  0
    9.1006   -7.4372   17.7983 C   0  0  0  0  0  0  0  0  0  0  0  0
   11.8493   -3.7036   16.0285 F   0  0  0  0  0  0  0  0  0  0  0  0
   10.8743   -5.7889   19.8881 C   0  0  0  0  0  0  0  0  0  0  0  0
    7.7845   -7.2746   16.9787 C   0  0  0  0  0  0  0  0  0  0  0  0
    5.3148   -8.6653   15.6300 C   0  0  0  0  0  0  0  0  0  0  0  0
   11.4920   -5.4533   20.0621 He  0  0  0  0  0  0  0  0  0  0  0  0
   11.4866   -2.4198   25.0532 He  0  0  0  0  0  0  0  0  0  0  0  0
    6.6279   -8.0749   16.5680 He  0  0  0  0  0  0  0  0  0  0  0  0
    3.6410   -8.3855   16.0643 He  0  0  0  0  0  0  0  0  0  0  0  0
    9.8146   -1.1848   22.8912 He  0  0  0  0  0  0  0  0  0  0  0  0
   10.2028   -4.2904   18.0618 He  0  0  0  0  0  0  0  0  0  0  0  0
  1  3  4  0
  1  7  4  0
  1 10  3  0
  1 18  2  0
  1 19  4  0
  2  3  3  0
  2  4  4  0
  2  6  3  0
  2 10  3  0
  2 12  2  0
  2 13  1  0
  2 15  1  0
  2 16  1  0
  3  5  4  0
  3 12  4  0
  3 17  3  0
  3 19  1  0
  3 21  4  0
  4 10  3  0
  4 23  4  0
  5 15  2  0
  5 16  3  0
  5 17  4  0
  5 21  4  0
  6  7  1  0
  6 10  1  0
  6 12  3  0
  6 13  2  0
  6 17  1  0
  6 20  1  0
  7  8  2  0
  7  9  2  0
  7 13  3  0
  7 16  1  0
  7 18  2  0
  7 22  4  0
  8 15  4  0
  8 16  3  0
  8 17  4  0
  8 19  3  0
  8 21  1  0
  9 12  1  0
  9 13  4  0
  9 15  3  0
  9 18  4  0
  9 20  2  0
  9 22  1  0
 10 12  3  0
 10 20  1  0
 11 15  3  0
 11 18  3  0
 11 19  4  0
 11 23  3  0
 12 15  4  0
 12 19  3  0
 12 20  2  0
 12 22  4  0
 13 16  4  0
 14 20  3  0
 14 22  4  0
 15 19  3  0
 16 23  2  0
 17 20  3  0
 18 22  1  0
 19 22  4  0
 20 22  1  0
 21 23  2  0
M  END
$$$$

 Created by Python create_sdf_string function

 29 32  0  0  0  0  0  0  0  0999 V2000
    9.6503   -7.6065   18.1548 C   0  0  0  0  0  0  0  0  0  0  0  0
    8.8441   -3.9195   15.8320 F   0  0  0  0  0  0  0  0  0  0  0  0
    9.3277   -6.1737   17.9385 C   0  0  0  0  0  0  0  0  0  0  0  0
    4.9971   -8.8414   15.6838 C   0  0  0  0  0  0  0  0  0  0  0  0
   10.1406   -5.3003   18.7845 C   0  0  0  0  0  0  0  0  0  0  0  0
   10.0986   -3.9612   16.1368 S   0  0  0  0  0  0  0  0  0  0  0  0
   11.0697   -5.2468   20.9652 C   0  0  0  0  0  0  0  0  0  0  0  0
   10.9953   -3.4667   22.4794 C   0  0  0  0  0  0  0  0  0  0  0  0
   11.3060   -3.8652   24.8979 C   0  0  0  0  0  0  0  0  0  0  0  0
   10.3845   -1.8484   24.0742 C   0  0  0  0  0  0  0  0  0  0  0  0
    5.3871   -8.0080   17.2642 C   0  0  0  0  0  0  0  0  0  0  0  0
   10.7872   -2.6460   25.1421 C   0  0  0  0  0  0  0  0  0  0  0  0
    6.6311   -8.8481   15.6967 C   0  0  0  0  0  0  0  0  0  0  0  0
   10.5520   -3.8323   18.6219 C   0  0  0  0  0  0  0  0  0  0  0  0
   10.1335   -3.8530   15.0472 F   0  0  0  0  0  0  0  0  0  0  0  0
    8.0467   -6.2000   17.0584 C   0  0  0  0  0  0  0  0  0  0  0  0
   10.8379   -3.2830   19.8522 C   0  0  0  0  0  0  0  0  0  0  0  0
   10.9390   -3.9559   21.1263 C   0  0  0  0  0  0  0  0  0  0  0  0
   11.3853   -4.2944   23.5787 C   0  0  0  0  0  0  0  0  0  0  0  0
    6.5552   -8.0957   16.6218 C   0  0  0  0  0  0  0  0  0  0  0  0
    3.9653   -8.5370   16.5151 C   0  0  0  0  0  0  0  0  0  0  0  0
   10.5589   -2.2632   22.8077 C   0  0  0  0  0  0  0  0  0  0  0  0
   10.6480   -2.1794   26.4205 F   0  0  0  0  0  0  0  0  0  0  0  0
    8.7210   -8.2544   17.4276 C   0  0  0  0  0  0  0  0  0  0  0  0
   11.4324   -3.7809   16.2668 C   0  0  0  0  0  0  0  0  0  0  0  0
   10.6036   -5.8828   19.9224 C   0  0  0  0  0  0  0  0  0  0  0  0
    7.7678   -7.4773   17.0137 C   0  0  0  0  0  0  0  0  0  0  0  0
   10.1975   -3.7870   17.4637 N   0  0  0  0  0  0  0  0  0  0  0  0
    5.3074   -8.9263   15.5033 C   0  0  0  0  0  0  0  0  0  0  0  0
  1  3  4  0
  1 24  4  0
  2  6  1  0
  3  5  4  0
  3 16  4  0
  4 21  4  0
  4 29  4  0
  5 14  4  0
  5 26  4  0
  6 15  1  0
  6 25  1  0
  6 28  1  0
  7 18  4  0
  7 26  4  0
  8 18  1  0
  8 19  4  0
  8 22  4  0
  9 12  4  0
  9 19  4  0
 10 12  4  0
 10 22  4  0
 11 20  4  0
 11 21  4  0
 12 23  1  0
 13 20  4  0
 13 29  4  0
 14 17  4  0
 14 28  4  0
 16 27  4  0
 17 18  4  0
 20 27  1  0
 24 27  4  0
M  END
$$$$

 Created by Python create_sdf_string function

 29 55  0  0  0  0  0  0  0  0999 V2000
    9.0530   -7.7323   19.0052 C   0  0  0  0  0  0  0  0  0  0  0  0
    4.4323   -8.8532   15.2852 C   0  0  0  0  0  0  0  0  0  0  0  0
   10.0878   -5.5357   19.7759 N   0  0  0  0  0  0  0  0  0  0  0  0
    9.8344   -3.9081   16.5570 N   0  0  0  0  0  0  0  0  0  0  0  0
   10.9190   -5.7402   20.8936 C   0  0  0  0  0  0  0  0  0  0  0  0
   10.8723   -3.9787   22.9326 C   0  0  0  0  0  0  0  0  0  0  0  0
   11.6529   -4.0443   25.0098 C   0  0  0  0  0  0  0  0  0  0  0  0
   10.5589   -1.0854   24.9365 C   0  0  0  0  0  0  0  0  0  0  0  0
    5.0806   -7.8865   17.5426 C   0  0  0  0  0  0  0  0  0  0  0  0
   11.3447   -2.0957   26.2670 O   0  0  0  0  0  0  0  0  0  0  0  0
    6.5474   -9.7794   15.4722 C   0  0  0  0  0  0  0  0  0  0  0  0
   10.6070   -3.9023   18.6801 C   0  0  0  0  0  0  0  0  0  0  0  0
   11.0478   -3.0465   19.4416 C   0  0  0  0  0  0  0  0  0  0  0  0
   11.1725   -4.2143   21.0444 C   0  0  0  0  0  0  0  0  0  0  0  0
   11.2949   -4.2634   23.4904 C   0  0  0  0  0  0  0  0  0  0  0  0
    3.9171   -8.8304   16.5929 Br  0  0  0  0  0  0  0  0  0  0  0  0
   10.0037   -3.1352   23.9863 C   0  0  0  0  0  0  0  0  0  0  0  0
    9.1035   -7.8985   17.9089 C   0  0  0  0  0  0  0  0  0  0  0  0
   10.5502   -5.9884   19.5563 F   0  0  0  0  0  0  0  0  0  0  0  0
    8.0709   -7.3980   16.4417 C   0  0  0  0  0  0  0  0  0  0  0  0
    4.2360   -9.0102   16.2838 C   0  0  0  0  0  0  0  0  0  0  0  0
   10.1959   -4.3944   16.6065 He  0  0  0  0  0  0  0  0  0  0  0  0
    9.7111   -5.7194   18.1127 He  0  0  0  0  0  0  0  0  0  0  0  0
   10.7051   -3.8964   14.6617 He  0  0  0  0  0  0  0  0  0  0  0  0
    8.2552   -5.8161   17.3861 He  0  0  0  0  0  0  0  0  0  0  0  0
    5.6103   -7.9125   16.9671 He  0  0  0  0  0  0  0  0  0  0  0  0
   10.6790   -2.1761   26.8292 He  0  0  0  0  0  0  0  0  0  0  0  0
   11.2902   -3.7343   16.3061 He  0  0  0  0  0  0  0  0  0  0  0  0
   10.3426   -3.5113   18.0121 He  0  0  0  0  0  0  0  0  0  0  0  0
  1  3  2  0
  1 13  2  0
  1 15  1  0
  1 18  2  0
  1 20  2  0
  1 21  3  0
  2  7  4  0
  2  9  4  0
  2 15  3  0
  2 19  4  0
  2 21  4  0
  3  9  4  0
  3 11  4  0
  3 16  2  0
  3 18  3  0
  3 19  4  0
  3 21  1  0
  4  5  2  0
  4 10  1  0
  4 12  3  0
  4 14  1  0
  4 17  3  0
  5 12  2  0
  5 14  4  0
  5 19  4  0
  5 21  2  0
  6  8  4  0
  6 13  2  0
  6 14  4  0
  6 15  2  0
  6 17  2  0
  6 19  1  0
  6 21  4  0
  7 10  4  0
  7 13  3  0
  7 21  1  0
  8 17  1  0
  9 13  1  0
  9 17  1  0
 10 12  2  0
 10 17  2  0
 10 21  1  0
 11 15  4  0
 11 19  4  0
 11 21  2  0
 12 13  4  0
 13 14  3  0
 13 17  2  0
 15 17  2  0
 15 18  3  0
 16 18  2  0
 16 19  2  0
 18 19  2  0
 18 21  3  0
 20 21  1  0
M  END
$$$$

 Created by Python create_sdf_string function

 29 30  0  0  0  0  0  0  0  0999 V2000
    9.4446   -7.9726   18.4013 C   0  0  0  0  0  0  0  0  0  0  0  0
    9.9301   -4.1973   16.0602 C   0  0  0  0  0  0  0  0  0  0  0  0
    9.3233   -5.8322   17.8260 C   0  0  0  0  0  0  0  0  0  0  0  0
    4.1677   -8.6592   16.3550 C   0  0  0  0  0  0  0  0  0  0  0  0
   10.1750   -5.3182   18.9729 C   0  0  0  0  0  0  0  0  0  0  0  0
    9.8997   -4.3742   16.6884 N   0  0  0  0  0  0  0  0  0  0  0  0
   10.8427   -5.2872   21.2249 C   0  0  0  0  0  0  0  0  0  0  0  0
   10.8258   -3.4538   22.8760 C   0  0  0  0  0  0  0  0  0  0  0  0
   11.4481   -3.8391   25.1978 C   0  0  0  0  0  0  0  0  0  0  0  0
   10.2585   -1.9241   24.6404 C   0  0  0  0  0  0  0  0  0  0  0  0
    5.2955   -7.7569   17.2247 C   0  0  0  0  0  0  0  0  0  0  0  0
   10.9375   -2.6470   25.6876 C   0  0  0  0  0  0  0  0  0  0  0  0
    6.2886   -8.9241   15.7162 C   0  0  0  0  0  0  0  0  0  0  0  0
   10.6670   -4.0005   19.0188 C   0  0  0  0  0  0  0  0  0  0  0  0
   10.8936   -3.7255   15.1594 C   0  0  0  0  0  0  0  0  0  0  0  0
    8.0710   -6.2588   17.1127 C   0  0  0  0  0  0  0  0  0  0  0  0
   10.9709   -3.3700   20.1651 C   0  0  0  0  0  0  0  0  0  0  0  0
   10.9082   -4.0382   21.4812 C   0  0  0  0  0  0  0  0  0  0  0  0
   11.2589   -4.2309   23.7843 C   0  0  0  0  0  0  0  0  0  0  0  0
    6.3996   -8.0334   16.6920 C   0  0  0  0  0  0  0  0  0  0  0  0
    4.0290   -8.4728   16.6563 C   0  0  0  0  0  0  0  0  0  0  0  0
   10.2190   -2.3981   23.4126 C   0  0  0  0  0  0  0  0  0  0  0  0
   10.9542   -2.2657   26.8166 C   0  0  0  0  0  0  0  0  0  0  0  0
    8.6641   -8.2835   17.5744 C   0  0  0  0  0  0  0  0  0  0  0  0
   11.3226   -3.1864   16.9421 O   0  0  0  0  0  0  0  0  0  0  0  0
   10.4593   -5.9439   19.9925 C   0  0  0  0  0  0  0  0  0  0  0  0
    7.6921   -7.4277   17.0903 C   0  0  0  0  0  0  0  0  0  0  0  0
   10.8937   -3.4947   18.1489 N   0  0  0  0  0  0  0  0  0  0  0  0
    4.8644   -9.2244   15.4483 C   0  0  0  0  0  0  0  0  0  0  0  0
  1 24  4  0
  2  6  1  0
  2 15  1  0
  3  5  4  0
  3 16  4  0
  4 21  4  0
  4 29  4  0
  5 14  4  0
  5 26  4  0
  7 18  4  0
  7 26  4  0
  8 18  1  0
  8 19  1  0
  8 22  4  0
  9 12  4  0
  9 19  1  0
 10 12  4  0
 10 22  4  0
 11 20  4  0
 11 21  4  0
 12 23  1  0
 13 20  4  0
 13 29  4  0
 14 17  4  0
 14 28  4  0
 16 27  4  0
 17 18  4  0
 20 27  1  0
 24 27  4  0
 25 28  4  0
M  END
$$$$

 Created by Python create_sdf_string function

 29 34  0  0  0  0  0  0  0  0999 V2000
    9.0667   -8.3862   18.2479 C   0  0  0  0  0  0  0  0  0  0  0  0
   10.1652   -4.1952   15.2329 C   0  0  0  0  0  0  0  0  0  0  0  0
    8.9493   -6.2911   18.0216 C   0  0  0  0  0  0  0  0  0  0  0  0
    4.3831   -9.2285   15.7421 C   0  0  0  0  0  0  0  0  0  0  0  0
   10.5174   -4.8883   18.8894 C   0  0  0  0  0  0  0  0  0  0  0  0
    9.6110   -4.2094   16.9278 O   0  0  0  0  0  0  0  0  0  0  0  0
   10.4169   -4.3238   21.1223 C   0  0  0  0  0  0  0  0  0  0  0  0
   10.7540   -3.9362   19.0631 C   0  0  0  0  0  0  0  0  0  0  0  0
   10.7838   -3.5912   15.6102 C   0  0  0  0  0  0  0  0  0  0  0  0
   10.9290   -3.8769   21.3232 C   0  0  0  0  0  0  0  0  0  0  0  0
   11.5390   -4.3402   23.5607 O   0  0  0  0  0  0  0  0  0  0  0  0
    3.6158   -8.9371   16.5470 C   0  0  0  0  0  0  0  0  0  0  0  0
   11.0242   -2.3359   26.9339 C   0  0  0  0  0  0  0  0  0  0  0  0
    8.8474   -8.2650   16.5809 C   0  0  0  0  0  0  0  0  0  0  0  0
   10.8305   -2.7100   17.6119 O   0  0  0  0  0  0  0  0  0  0  0  0
   10.3340   -5.9556   20.3132 C   0  0  0  0  0  0  0  0  0  0  0  0
    7.5359   -7.3993   17.1368 C   0  0  0  0  0  0  0  0  0  0  0  0
   10.7588   -3.9165   18.5303 F   0  0  0  0  0  0  0  0  0  0  0  0
   11.3326   -3.6358   22.9576 He  0  0  0  0  0  0  0  0  0  0  0  0
   11.8033   -3.5219   24.7670 He  0  0  0  0  0  0  0  0  0  0  0  0
   10.0138   -1.8930   25.3723 He  0  0  0  0  0  0  0  0  0  0  0  0
    5.4321   -8.2238   17.5689 He  0  0  0  0  0  0  0  0  0  0  0  0
   10.4470   -2.3976   25.6470 He  0  0  0  0  0  0  0  0  0  0  0  0
    6.4723   -9.5587   16.2439 He  0  0  0  0  0  0  0  0  0  0  0  0
    7.3041   -6.4145   16.6419 He  0  0  0  0  0  0  0  0  0  0  0  0
   11.9538   -3.2828   21.6691 He  0  0  0  0  0  0  0  0  0  0  0  0
    5.7512   -8.4012   16.7545 He  0  0  0  0  0  0  0  0  0  0  0  0
   10.7187   -3.6601   23.0345 He  0  0  0  0  0  0  0  0  0  0  0  0
    5.0545   -9.4830   15.8417 He  0  0  0  0  0  0  0  0  0  0  0  0
  1  7  3  0
  1 14  4  0
  2  6  4  0
  2  7  1  0
  2  9  1  0
  2 18  4  0
  3 11  1  0
  3 14  3  0
  4  5  4  0
  4 10  3  0
  4 16  3  0
  5  8  2  0
  5 13  3  0
  5 17  4  0
  5 18  1  0
  6 10  2  0
  6 11  3  0
  6 12  3  0
  6 15  2  0
  7  8  2  0
  7  9  2  0
  7 10  4  0
  7 14  2  0
  7 15  2  0
  7 16  4  0
  9 13  2  0
  9 14  4  0
 10 18  3  0
 11 14  2  0
 11 16  1  0
 13 15  2  0
 13 18  4  0
 14 16  2  0
 14 17  4  0
M  END
$$$$

 Created by Python create_sdf_string function

 29 30  0  0  0  0  0  0  0  0999 V2000
    9.5582   -7.5769   17.9170 C   0  0  0  0  0  0  0  0  0  0  0  0
   10.1346   -4.1456   15.8792 C   0  0  0  0  0  0  0  0  0  0  0  0
    9.1522   -6.2055   17.7830 C   0  0  0  0  0  0  0  0  0  0  0  0
    3.9866   -9.3005   15.9287 C   0  0  0  0  0  0  0  0  0  0  0  0
   10.0907   -5.1538   18.5749 C   0  0  0  0  0  0  0  0  0  0  0  0
    9.4192   -4.5878   16.5491 O   0  0  0  0  0  0  0  0  0  0  0  0
   10.6520   -5.2252   21.0136 C   0  0  0  0  0  0  0  0  0  0  0  0
   11.1440   -3.8259   23.0671 C   0  0  0  0  0  0  0  0  0  0  0  0
   11.3827   -3.2029   25.1119 C   0  0  0  0  0  0  0  0  0  0  0  0
    9.5730   -1.7265   25.4064 C   0  0  0  0  0  0  0  0  0  0  0  0
    5.0700   -7.9118   17.2895 C   0  0  0  0  0  0  0  0  0  0  0  0
   10.6416   -2.4590   25.8457 C   0  0  0  0  0  0  0  0  0  0  0  0
    6.2123   -9.2853   15.7731 C   0  0  0  0  0  0  0  0  0  0  0  0
   11.1566   -3.2519   19.3756 C   0  0  0  0  0  0  0  0  0  0  0  0
   11.0052   -3.6729   15.5319 C   0  0  0  0  0  0  0  0  0  0  0  0
    7.7268   -6.3824   17.1243 C   0  0  0  0  0  0  0  0  0  0  0  0
   11.4040   -3.0909   20.7332 C   0  0  0  0  0  0  0  0  0  0  0  0
   11.0843   -4.0246   21.5835 C   0  0  0  0  0  0  0  0  0  0  0  0
   11.6607   -4.7262   23.6341 O   0  0  0  0  0  0  0  0  0  0  0  0
    6.2484   -8.2613   16.8042 C   0  0  0  0  0  0  0  0  0  0  0  0
    3.9399   -8.5158   16.8812 C   0  0  0  0  0  0  0  0  0  0  0  0
   10.8379   -3.0336   23.4532 N   0  0  0  0  0  0  0  0  0  0  0  0
   10.9678   -2.3566   26.9943 C   0  0  0  0  0  0  0  0  0  0  0  0
    8.6123   -8.4121   17.4084 C   0  0  0  0  0  0  0  0  0  0  0  0
   11.3253   -2.8926   17.7125 O   0  0  0  0  0  0  0  0  0  0  0  0
   10.2785   -5.5857   19.9061 C   0  0  0  0  0  0  0  0  0  0  0  0
    7.4873   -7.6836   17.0955 C   0  0  0  0  0  0  0  0  0  0  0  0
   10.8119   -3.8504   18.3482 C   0  0  0  0  0  0  0  0  0  0  0  0
    5.1225   -9.8225   15.3176 C   0  0  0  0  0  0  0  0  0  0  0  0
  1  3  4  0
  1 24  4  0
  2  6  1  0
  2 15  1  0
  3  5  1  0
  3 16  4  0
  4 21  4  0
  4 29  4  0
  5 26  4  0
  5 28  4  0
  7 18  4  0
  7 26  4  0
  8 18  1  0
  8 19  1  0
  8 22  2  0
  9 12  1  0
  9 22  1  0
 10 12  1  0
 11 20  4  0
 11 21  4  0
 12 23  1  0
 13 20  4  0
 13 29  4  0
 14 17  4  0
 14 28  4  0
 16 27  4  0
 17 18  4  0
 20 27  1  0
 24 27  4  0
 25 28  1  0
M  END
$$$$

 Created by Python create_sdf_string function

 29 59  0  0  0  0  0  0  0  0999 V2000
   10.6374   -4.0609   15.6968 O   0  0  0  0  0  0  0  0  0  0  0  0
    8.9288   -6.5192   17.9548 O   0  0  0  0  0  0  0  0  0  0  0  0
    4.0915   -9.8233   16.5126 C   0  0  0  0  0  0  0  0  0  0  0  0
   10.2976   -4.4883   15.7533 C   0  0  0  0  0  0  0  0  0  0  0  0
   11.3081   -5.8228   20.7533 S   0  0  0  0  0  0  0  0  0  0  0  0
   10.7537   -4.1694   23.1042 C   0  0  0  0  0  0  0  0  0  0  0  0
   11.2583   -2.8393   25.4820 C   0  0  0  0  0  0  0  0  0  0  0  0
    6.0805   -9.1539   15.7034 Se  0  0  0  0  0  0  0  0  0  0  0  0
   11.1255   -3.2899   19.5614 P   0  0  0  0  0  0  0  0  0  0  0  0
   10.8624   -3.7782   15.4626 C   0  0  0  0  0  0  0  0  0  0  0  0
    7.2570   -5.8699   16.5258 C   0  0  0  0  0  0  0  0  0  0  0  0
   11.3023   -2.6137   21.4953 C   0  0  0  0  0  0  0  0  0  0  0  0
   10.8981   -3.9323   21.3910 C   0  0  0  0  0  0  0  0  0  0  0  0
   11.7111   -4.9949   23.6009 O   0  0  0  0  0  0  0  0  0  0  0  0
    5.3580   -8.5573   17.5915 F   0  0  0  0  0  0  0  0  0  0  0  0
    3.6440   -8.2636   17.1372 C   0  0  0  0  0  0  0  0  0  0  0  0
   10.2893   -3.0491   23.0516 S   0  0  0  0  0  0  0  0  0  0  0  0
   10.8856   -2.5648   26.7885 N   0  0  0  0  0  0  0  0  0  0  0  0
    8.2913   -8.5645   16.7703 S   0  0  0  0  0  0  0  0  0  0  0  0
   11.8593   -3.0996   17.2941 O   0  0  0  0  0  0  0  0  0  0  0  0
   10.8962   -5.2747   19.8478 C   0  0  0  0  0  0  0  0  0  0  0  0
    7.2731   -7.8222   16.8558 C   0  0  0  0  0  0  0  0  0  0  0  0
   10.2527   -7.3192   17.6761 He  0  0  0  0  0  0  0  0  0  0  0  0
    9.5005   -5.3958   17.8226 He  0  0  0  0  0  0  0  0  0  0  0  0
    9.2849   -1.2881   24.9418 He  0  0  0  0  0  0  0  0  0  0  0  0
    5.8052   -8.4936   17.5376 He  0  0  0  0  0  0  0  0  0  0  0  0
   10.4914   -2.7754   25.4952 He  0  0  0  0  0  0  0  0  0  0  0  0
   10.7282   -3.3251   18.4624 He  0  0  0  0  0  0  0  0  0  0  0  0
    5.1285   -9.6322   15.1728 He  0  0  0  0  0  0  0  0  0  0  0  0
  1  8  3  0
  1 10  1  0
  1 12  4  0
  2 11  3  0
  2 16  3  0
  2 18  4  0
  3  4  3  0
  3  5  2  0
  3  6  2  0
  3  8  2  0
  3  9  1  0
  3 11  1  0
  4  6  3  0
  4  7  3  0
  4 10  2  0
  4 14  4  0
  4 22  3  0
  5  7  4  0
  5 13  2  0
  5 15  1  0
  5 17  3  0
  5 21  4  0
  6  7  3  0
  6 10  1  0
  6 12  4  0
  6 13  1  0
  6 14  1  0
  6 19  2  0
  7  8  1  0
  7 14  3  0
  7 15  4  0
  7 17  3  0
  7 18  4  0
  7 20  1  0
  8 10  1  0
  8 12  4  0
  8 15  1  0
  8 18  4  0
  8 20  2  0
 10 13  1  0
 10 14  1  0
 10 18  4  0
 10 22  3  0
 11 13  3  0
 11 20  2  0
 11 21  4  0
 11 22  2  0
 12 13  4  0
 12 14  4  0
 13 17  3  0
 13 18  2  0
 13 20  1  0
 14 16  1  0
 14 22  4  0
 15 17  4  0
 15 20  3  0
 16 21  3  0
 17 20  3  0
 19 22  4  0
M  END
$$$$

 Created by Python create_sdf_string function

 29 30  0  0  0  0  0  0  0  0999 V2000
    9.6804   -7.5581   17.8569 C   0  0  0  0  0  0  0  0  0  0  0  0
   10.6897   -4.0773   15.4896 O   0  0  0  0  0  0  0  0  0  0  0  0
    9.1825   -6.2319   17.7334 C   0  0  0  0  0  0  0  0  0  0  0  0
    3.8761   -9.2948   16.2562 C   0  0  0  0  0  0  0  0  0  0  0  0
   10.0946   -5.2646   18.4150 C   0  0  0  0  0  0  0  0  0  0  0  0
    9.8416   -4.2261   15.8896 C   0  0  0  0  0  0  0  0  0  0  0  0
   10.8321   -5.2423   20.8675 C   0  0  0  0  0  0  0  0  0  0  0  0
   10.9972   -3.8384   23.0299 C   0  0  0  0  0  0  0  0  0  0  0  0
   11.1667   -3.2919   25.5678 C   0  0  0  0  0  0  0  0  0  0  0  0
    9.5948   -1.7649   24.8935 C   0  0  0  0  0  0  0  0  0  0  0  0
    5.2285   -8.0314   17.5607 C   0  0  0  0  0  0  0  0  0  0  0  0
   10.4410   -2.5752   25.5071 C   0  0  0  0  0  0  0  0  0  0  0  0
    6.0917   -9.2903   15.7843 C   0  0  0  0  0  0  0  0  0  0  0  0
   11.0399   -3.1160   19.4126 C   0  0  0  0  0  0  0  0  0  0  0  0
   10.7800   -3.9312   15.5898 C   0  0  0  0  0  0  0  0  0  0  0  0
    7.9806   -6.3127   17.0453 C   0  0  0  0  0  0  0  0  0  0  0  0
   11.2137   -3.0674   20.7502 C   0  0  0  0  0  0  0  0  0  0  0  0
   10.9978   -4.0965   21.4818 C   0  0  0  0  0  0  0  0  0  0  0  0
   11.5059   -4.7006   23.5391 O   0  0  0  0  0  0  0  0  0  0  0  0
    6.2653   -8.3350   16.8177 C   0  0  0  0  0  0  0  0  0  0  0  0
    4.0335   -8.5799   17.2007 C   0  0  0  0  0  0  0  0  0  0  0  0
   10.2663   -2.7044   23.4017 N   0  0  0  0  0  0  0  0  0  0  0  0
   10.5852   -2.4866   26.6558 N   0  0  0  0  0  0  0  0  0  0  0  0
    8.6745   -8.4474   17.2770 C   0  0  0  0  0  0  0  0  0  0  0  0
   11.2711   -3.0955   17.2099 O   0  0  0  0  0  0  0  0  0  0  0  0
   10.3931   -5.6076   19.6254 C   0  0  0  0  0  0  0  0  0  0  0  0
    7.6150   -7.5957   16.9905 C   0  0  0  0  0  0  0  0  0  0  0  0
   10.7983   -3.9432   18.5670 C   0  0  0  0  0  0  0  0  0  0  0  0
    4.9193   -9.7118   15.4881 C   0  0  0  0  0  0  0  0  0  0  0  0
  1  3  4  0
  1 24  4  0
  2  6  1  0
  2 15  1  0
  3  5  1  0
  3 16  4  0
  4 21  4  0
  4 29  4  0
  5 26  4  0
  5 28  4  0
  6 15  2  0
  7 18  4  0
  7 26  4  0
  8 18  1  0
  8 19  1  0
  8 22  1  0
  9 12  1  0
 10 12  1  0
 11 20  4  0
 11 21  4  0
 12 23  1  0
 13 20  4  0
 13 29  4  0
 14 17  4  0
 14 28  4  0
 16 27  4  0
 17 18  4  0
 20 27  1  0
 24 27  4  0
 25 28  1  0
M  END
$$$$

 Created by Python create_sdf_string function

 29 67  0  0  0  0  0  0  0  0999 V2000
   10.2765   -6.8491   17.5096 C   0  0  0  0  0  0  0  0  0  0  0  0
   10.1528   -4.1783   15.1099 O   0  0  0  0  0  0  0  0  0  0  0  0
    9.5057   -6.0799   17.1950 C   0  0  0  0  0  0  0  0  0  0  0  0
   10.2750   -5.2622   18.2186 C   0  0  0  0  0  0  0  0  0  0  0  0
    9.3071   -4.3303   15.0816 C   0  0  0  0  0  0  0  0  0  0  0  0
   10.6870   -3.5762   23.3773 C   0  0  0  0  0  0  0  0  0  0  0  0
   11.8466   -3.7683   26.0322 C   0  0  0  0  0  0  0  0  0  0  0  0
    5.9309   -7.6965   17.4630 C   0  0  0  0  0  0  0  0  0  0  0  0
   10.8653   -3.4001   26.1289 C   0  0  0  0  0  0  0  0  0  0  0  0
    4.8285   -9.6660   15.6239 C   0  0  0  0  0  0  0  0  0  0  0  0
   10.7967   -2.9728   19.6635 C   0  0  0  0  0  0  0  0  0  0  0  0
   10.4273   -4.6377   16.2485 C   0  0  0  0  0  0  0  0  0  0  0  0
    7.1636   -5.7229   17.2943 C   0  0  0  0  0  0  0  0  0  0  0  0
   10.5229   -3.3042   21.4549 C   0  0  0  0  0  0  0  0  0  0  0  0
   10.7135   -4.0830   21.7276 C   0  0  0  0  0  0  0  0  0  0  0  0
   11.5719   -4.5074   23.5570 O   0  0  0  0  0  0  0  0  0  0  0  0
    6.7096   -8.7246   17.4250 C   0  0  0  0  0  0  0  0  0  0  0  0
    3.7046   -8.0383   17.1580 C   0  0  0  0  0  0  0  0  0  0  0  0
    9.8788   -1.8430   23.0100 N   0  0  0  0  0  0  0  0  0  0  0  0
   10.5661   -2.6708   26.7260 N   0  0  0  0  0  0  0  0  0  0  0  0
   10.0706   -5.9460   20.0907 C   0  0  0  0  0  0  0  0  0  0  0  0
    7.4893   -7.5057   16.8498 N   0  0  0  0  0  0  0  0  0  0  0  0
   10.9387   -4.1144   19.4079 C   0  0  0  0  0  0  0  0  0  0  0  0
    4.8332   -8.6481   15.8435 C   0  0  0  0  0  0  0  0  0  0  0  0
    3.2257   -9.0654   16.6474 He  0  0  0  0  0  0  0  0  0  0  0  0
   10.7154   -5.2345   20.3947 He  0  0  0  0  0  0  0  0  0  0  0  0
    8.8590   -1.9374   24.7876 He  0  0  0  0  0  0  0  0  0  0  0  0
    8.4670   -8.5552   16.9519 He  0  0  0  0  0  0  0  0  0  0  0  0
   11.3325   -2.3132   18.0729 He  0  0  0  0  0  0  0  0  0  0  0  0
  1  3  4  0
  1  6  3  0
  1  7  4  0
  1 12  3  0
  1 15  4  0
  1 17  4  0
  1 22  1  0
  1 23  4  0
  2  4  3  0
  2  7  4  0
  2  8  2  0
  2 12  1  0
  2 15  2  0
  2 18  1  0
  2 19  2  0
  3  4  1  0
  3 14  1  0
  3 20  2  0
  3 21  4  0
  4 13  1  0
  4 15  4  0
  4 20  3  0
  4 21  4  0
  4 23  1  0
  5 10  3  0
  5 13  4  0
  5 24  1  0
  6 15  1  0
  6 16  1  0
  6 18  1  0
  6 19  1  0
  7  8  4  0
  7 12  2  0
  7 13  2  0
  7 15  1  0
  7 18  3  0
  7 20  2  0
  7 21  3  0
  7 22  2  0
  7 24  3  0
  8  9  1  0
  8 16  4  0
  8 17  3  0
  8 18  4  0
  8 19  2  0
  9 15  3  0
  9 17  3  0
  9 20  1  0
  9 23  4  0
 10 13  3  0
 10 15  1  0
 10 24  4  0
 11 16  4  0
 11 19  2  0
 11 23  4  0
 12 16  2  0
 13 17  3  0
 13 22  4  0
 14 15  4  0
 14 21  2  0
 15 17  4  0
 16 22  1  0
 16 24  2  0
 17 18  1  0
 17 22  1  0
 17 24  3  0
 18 22  1  0
M  END
$$$$

 Created by Python create_sdf_string function

 29 31  0  0  0  0  0  0  0  0999 V2000
    9.6677   -7.3592   17.6400 C   0  0  0  0  0  0  0  0  0  0  0  0
   10.0372   -4.0115   15.7738 C   0  0  0  0  0  0  0  0  0  0  0  0
    9.6256   -6.0367   17.5293 C   0  0  0  0  0  0  0  0  0  0  0  0
    3.5485   -8.7924   16.5437 C   0  0  0  0  0  0  0  0  0  0  0  0
   10.3371   -5.1477   18.3547 C   0  0  0  0  0  0  0  0  0  0  0  0
    8.6175   -5.1911   16.1826 C   0  0  0  0  0  0  0  0  0  0  0  0
   10.6963   -5.2068   21.1044 C   0  0  0  0  0  0  0  0  0  0  0  0
   10.7733   -3.6339   23.3305 C   0  0  0  0  0  0  0  0  0  0  0  0
   11.4535   -3.7565   25.5241 C   0  0  0  0  0  0  0  0  0  0  0  0
    9.5916   -2.2728   24.9647 C   0  0  0  0  0  0  0  0  0  0  0  0
    5.3946   -7.8388   17.6827 C   0  0  0  0  0  0  0  0  0  0  0  0
   10.4496   -2.9583   25.9008 C   0  0  0  0  0  0  0  0  0  0  0  0
    5.8075   -8.9767   15.7953 C   0  0  0  0  0  0  0  0  0  0  0  0
   10.9371   -3.0956   19.5988 C   0  0  0  0  0  0  0  0  0  0  0  0
   10.6436   -4.0011   16.4270 C   0  0  0  0  0  0  0  0  0  0  0  0
    7.7242   -6.2924   16.5494 C   0  0  0  0  0  0  0  0  0  0  0  0
   10.9806   -2.9899   20.8853 C   0  0  0  0  0  0  0  0  0  0  0  0
   10.8174   -3.9981   21.7928 C   0  0  0  0  0  0  0  0  0  0  0  0
   11.3991   -4.3743   23.8876 O   0  0  0  0  0  0  0  0  0  0  0  0
    6.2881   -8.1149   16.7874 C   0  0  0  0  0  0  0  0  0  0  0  0
    4.0167   -8.1398   17.3753 C   0  0  0  0  0  0  0  0  0  0  0  0
   10.0340   -2.4768   23.5567 N   0  0  0  0  0  0  0  0  0  0  0  0
   10.4311   -2.6982   26.8704 N   0  0  0  0  0  0  0  0  0  0  0  0
    8.6542   -8.1870   17.2550 C   0  0  0  0  0  0  0  0  0  0  0  0
   11.2277   -2.8578   17.2965 O   0  0  0  0  0  0  0  0  0  0  0  0
   10.4372   -5.6300   19.8368 C   0  0  0  0  0  0  0  0  0  0  0  0
    7.5330   -7.5877   16.8489 C   0  0  0  0  0  0  0  0  0  0  0  0
   10.7757   -3.9186   18.9182 C   0  0  0  0  0  0  0  0  0  0  0  0
    4.5743   -9.2449   15.6848 C   0  0  0  0  0  0  0  0  0  0  0  0
  1  3  4  0
  1 24  4  0
  2 15  1  0
  3  5  1  0
  3  6  4  0
  4 21  4  0
  4 29  4  0
  5 26  4  0
  5 28  1  0
  6 16  4  0
  7 18  4  0
  7 26  4  0
  8 18  1  0
  8 19  1  0
  8 22  1  0
  9 12  1  0
  9 19  1  0
 10 12  1  0
 10 22  1  0
 11 20  4  0
 11 21  4  0
 12 23  1  0
 13 20  4  0
 13 29  4  0
 14 17  4  0
 14 28  4  0
 15 25  1  0
 16 27  4  0
 17 18  4  0
 20 27  1  0
 24 27  4  0
M  END
$$$$

 Created by Python create_sdf_string function

 29 50  0  0  0  0  0  0  0  0999 V2000
    9.8475   -6.6355   18.0853 C   0  0  0  0  0  0  0  0  0  0  0  0
    9.1771   -5.8747   17.1619 C   0  0  0  0  0  0  0  0  0  0  0  0
    3.0813   -8.8374   16.6261 C   0  0  0  0  0  0  0  0  0  0  0  0
   11.4337   -4.9123   19.6657 C   0  0  0  0  0  0  0  0  0  0  0  0
    8.7658   -5.6182   16.2754 C   0  0  0  0  0  0  0  0  0  0  0  0
   11.1449   -5.9231   20.8526 C   0  0  0  0  0  0  0  0  0  0  0  0
   10.8024   -3.1320   23.1289 C   0  0  0  0  0  0  0  0  0  0  0  0
    9.1724   -1.4829   23.6012 C   0  0  0  0  0  0  0  0  0  0  0  0
    5.3747   -9.4338   16.6378 C   0  0  0  0  0  0  0  0  0  0  0  0
   10.7533   -3.0648   19.6804 C   0  0  0  0  0  0  0  0  0  0  0  0
   10.6274   -4.2438   16.3530 C   0  0  0  0  0  0  0  0  0  0  0  0
    7.5003   -6.3749   17.6746 C   0  0  0  0  0  0  0  0  0  0  0  0
   10.8892   -2.6628   20.8502 C   0  0  0  0  0  0  0  0  0  0  0  0
   10.8395   -3.9700   21.8911 C   0  0  0  0  0  0  0  0  0  0  0  0
   11.3915   -4.8947   23.9122 O   0  0  0  0  0  0  0  0  0  0  0  0
    5.9712   -8.8476   17.2634 C   0  0  0  0  0  0  0  0  0  0  0  0
    4.2960   -8.0786   17.6786 C   0  0  0  0  0  0  0  0  0  0  0  0
    9.9920   -2.7404   23.4427 N   0  0  0  0  0  0  0  0  0  0  0  0
   10.2686   -2.6570   26.9855 N   0  0  0  0  0  0  0  0  0  0  0  0
    9.0098   -8.6308   17.0898 C   0  0  0  0  0  0  0  0  0  0  0  0
   10.9382   -3.5311   17.0351 O   0  0  0  0  0  0  0  0  0  0  0  0
   10.4567   -5.2565   19.8018 C   0  0  0  0  0  0  0  0  0  0  0  0
    9.8598   -3.6557   14.7284 He  0  0  0  0  0  0  0  0  0  0  0  0
   10.7705   -4.3975   26.4378 He  0  0  0  0  0  0  0  0  0  0  0  0
    5.4399   -7.8967   17.1875 He  0  0  0  0  0  0  0  0  0  0  0  0
   10.6678   -2.1788   25.9258 He  0  0  0  0  0  0  0  0  0  0  0  0
    7.5082   -7.7827   17.0024 He  0  0  0  0  0  0  0  0  0  0  0  0
   11.5692   -3.1749   19.0895 He  0  0  0  0  0  0  0  0  0  0  0  0
    4.5120   -8.9066   15.6842 He  0  0  0  0  0  0  0  0  0  0  0  0
  1  2  4  0
  1  3  4  0
  1  4  4  0
  1  5  4  0
  1  6  2  0
  1 13  1  0
  1 15  2  0
  1 16  4  0
  1 18  1  0
  1 20  4  0
  2  4  1  0
  2 10  2  0
  2 14  1  0
  3  4  2  0
  3  5  2  0
  3 15  2  0
  3 17  1  0
  3 19  2  0
  3 20  4  0
  4  9  4  0
  4 12  1  0
  4 22  4  0
  5  8  4  0
  5 12  4  0
  5 19  1  0
  5 20  1  0
  6 10  2  0
  6 14  4  0
  6 21  1  0
  7  8  3  0
  7 12  4  0
  7 14  1  0
  7 17  1  0
  7 20  1  0
  8  9  3  0
  8 21  1  0
  9 12  1  0
  9 13  1  0
  9 16  4  0
 10 11  4  0
 10 16  4  0
 11 16  3  0
 11 17  3  0
 11 21  1  0
 13 20  3  0
 13 22  4  0
 15 18  4  0
 15 19  2  0
 18 19  3  0
 20 22  4  0
M  END
$$$$

 Created by Python create_sdf_string function

 29 32  0  0  0  0  0  0  0  0999 V2000
    9.7799   -7.2100   17.9579 C   0  0  0  0  0  0  0  0  0  0  0  0
    9.9196   -3.6895   15.4370 O   0  0  0  0  0  0  0  0  0  0  0  0
    9.6913   -5.6207   17.5773 C   0  0  0  0  0  0  0  0  0  0  0  0
    3.5370   -8.8764   16.4713 C   0  0  0  0  0  0  0  0  0  0  0  0
   10.5494   -4.9483   18.7410 C   0  0  0  0  0  0  0  0  0  0  0  0
    8.4840   -5.5919   16.7199 C   0  0  0  0  0  0  0  0  0  0  0  0
   10.9389   -5.1913   21.2796 C   0  0  0  0  0  0  0  0  0  0  0  0
   10.8089   -3.6942   23.3684 C   0  0  0  0  0  0  0  0  0  0  0  0
   10.8738   -4.0580   25.7091 N   0  0  0  0  0  0  0  0  0  0  0  0
    9.7586   -1.5915   23.9638 C   0  0  0  0  0  0  0  0  0  0  0  0
    5.2152   -7.7836   17.6917 C   0  0  0  0  0  0  0  0  0  0  0  0
   10.4381   -2.8721   25.7895 C   0  0  0  0  0  0  0  0  0  0  0  0
    5.8812   -9.2437   16.1777 C   0  0  0  0  0  0  0  0  0  0  0  0
   11.1252   -2.8872   19.7782 C   0  0  0  0  0  0  0  0  0  0  0  0
   10.4470   -4.1864   16.5781 C   0  0  0  0  0  0  0  0  0  0  0  0
    7.5892   -6.3320   16.7540 C   0  0  0  0  0  0  0  0  0  0  0  0
   11.0901   -2.8818   20.9865 C   0  0  0  0  0  0  0  0  0  0  0  0
   10.9102   -3.9292   21.8752 C   0  0  0  0  0  0  0  0  0  0  0  0
   11.1972   -4.6700   24.1817 O   0  0  0  0  0  0  0  0  0  0  0  0
    6.2667   -8.2627   17.0074 C   0  0  0  0  0  0  0  0  0  0  0  0
    3.9275   -7.9575   17.2766 C   0  0  0  0  0  0  0  0  0  0  0  0
   10.3697   -2.6472   24.0434 N   0  0  0  0  0  0  0  0  0  0  0  0
   10.1205   -2.2106   26.5170 N   0  0  0  0  0  0  0  0  0  0  0  0
    8.7550   -8.0924   17.5882 C   0  0  0  0  0  0  0  0  0  0  0  0
   11.0352   -3.6598   17.3347 O   0  0  0  0  0  0  0  0  0  0  0  0
   10.8135   -5.4862   19.7696 C   0  0  0  0  0  0  0  0  0  0  0  0
    7.5723   -7.6398   17.0931 C   0  0  0  0  0  0  0  0  0  0  0  0
   10.9187   -3.7505   18.9622 C   0  0  0  0  0  0  0  0  0  0  0  0
    4.6295   -9.4799   15.9123 C   0  0  0  0  0  0  0  0  0  0  0  0
  1  3  4  0
  1 24  4  0
  2 15  2  0
  3  5  1  0
  3  6  4  0
  3 15  1  0
  4 21  4  0
  4 29  4  0
  5 26  4  0
  5 28  4  0
  6 16  4  0
  7 18  4  0
  7 26  4  0
  8 18  1  0
  8 19  4  0
  8 22  1  0
  9 12  4  0
  9 19  4  0
 10 22  1  0
 11 20  4  0
 11 21  4  0
 12 22  1  0
 12 23  2  0
 13 20  4  0
 13 29  4  0
 14 17  4  0
 14 28  4  0
 15 25  1  0
 16 27  4  0
 17 18  4  0
 20 27  1  0
 24 27  4  0
M  END
$$$$

 Created by Python create_sdf_string function

 29 55  0  0  0  0  0  0  0  0999 V2000
   10.2885   -7.0899   18.4034 N   0  0  0  0  0  0  0  0  0  0  0  0
   10.6019   -4.2806   15.6912 O   0  0  0  0  0  0  0  0  0  0  0  0
    9.6260   -6.1055   17.0844 C   0  0  0  0  0  0  0  0  0  0  0  0
    3.2166   -8.8849   16.3991 C   0  0  0  0  0  0  0  0  0  0  0  0
    9.6188   -4.9461   18.6554 C   0  0  0  0  0  0  0  0  0  0  0  0
   11.6981   -3.2646   23.2559 F   0  0  0  0  0  0  0  0  0  0  0  0
   10.1296   -1.0508   25.0779 C   0  0  0  0  0  0  0  0  0  0  0  0
    4.8675   -6.9371   17.4600 C   0  0  0  0  0  0  0  0  0  0  0  0
    9.6485   -2.8024   26.2542 C   0  0  0  0  0  0  0  0  0  0  0  0
    5.5008   -9.4264   15.3599 C   0  0  0  0  0  0  0  0  0  0  0  0
    7.7343   -7.5461   17.0588 C   0  0  0  0  0  0  0  0  0  0  0  0
   11.1987   -3.2606   20.7450 C   0  0  0  0  0  0  0  0  0  0  0  0
   10.6543   -3.9348   21.6276 C   0  0  0  0  0  0  0  0  0  0  0  0
   11.3496   -4.7416   24.1212 O   0  0  0  0  0  0  0  0  0  0  0  0
    6.6505   -8.6409   17.4053 C   0  0  0  0  0  0  0  0  0  0  0  0
    4.1405   -8.0002   18.0294 C   0  0  0  0  0  0  0  0  0  0  0  0
   10.0496   -2.2367   26.7830 N   0  0  0  0  0  0  0  0  0  0  0  0
    8.2468   -7.5145   17.0964 C   0  0  0  0  0  0  0  0  0  0  0  0
   10.4078   -3.9409   17.2173 N   0  0  0  0  0  0  0  0  0  0  0  0
   11.0512   -5.6160   19.8287 C   0  0  0  0  0  0  0  0  0  0  0  0
    7.9117   -7.6438   17.2203 C   0  0  0  0  0  0  0  0  0  0  0  0
   11.3980   -3.3177   19.6715 P   0  0  0  0  0  0  0  0  0  0  0  0
    5.0967   -9.9754   16.2943 C   0  0  0  0  0  0  0  0  0  0  0  0
    8.3837   -6.0337   16.5266 He  0  0  0  0  0  0  0  0  0  0  0  0
   10.7558   -5.1534   21.5996 He  0  0  0  0  0  0  0  0  0  0  0  0
   10.6147   -4.4610   25.2147 He  0  0  0  0  0  0  0  0  0  0  0  0
   11.2272   -2.9256   19.5618 He  0  0  0  0  0  0  0  0  0  0  0  0
   10.0936   -3.5342   17.7473 He  0  0  0  0  0  0  0  0  0  0  0  0
   10.5142   -2.6790   24.3923 He  0  0  0  0  0  0  0  0  0  0  0  0
  1  3  4  0
  1  6  4  0
  1  9  1  0
  1 18  4  0
  1 21  4  0
  2  3  1  0
  2  4  3  0
  2 22  1  0
  3  5  1  0
  3 16  3  0
  3 20  4  0
  3 22  2  0
  4  6  3  0
  4 13  4  0
  4 19  3  0
  4 22  4  0
  5  7  3  0
  5  9  1  0
  5 17  3  0
  5 22  2  0
  6  7  2  0
  6 13  1  0
  6 14  4  0
  6 15  4  0
  6 19  2  0
  7 19  4  0
  7 20  1  0
  8 16  4  0
  8 21  4  0
  9 14  1  0
  9 17  2  0
 10 14  2  0
 10 15  4  0
 10 17  1  0
 10 21  1  0
 11 13  3  0
 11 18  1  0
 11 23  4  0
 12 14  2  0
 12 18  4  0
 12 23  4  0
 13 19  3  0
 14 19  1  0
 14 22  3  0
 15 20  2  0
 15 21  1  0
 16 17  1  0
 16 18  1  0
 16 21  1  0
 16 22  4  0
 16 23  1  0
 17 18  1  0
 17 22  4  0
 18 20  4  0
 18 21  1  0
M  END
$$$$

 Created by Python create_sdf_string function

 29 31  0  0  0  0  0  0  0  0999 V2000
    9.6551   -7.2974   18.2677 N   0  0  0  0  0  0  0  0  0  0  0  0
   10.4437   -3.8509   15.9210 O   0  0  0  0  0  0  0  0  0  0  0  0
    9.6299   -5.9748   17.7738 C   0  0  0  0  0  0  0  0  0  0  0  0
    3.6595   -9.0243   16.5898 C   0  0  0  0  0  0  0  0  0  0  0  0
   10.2843   -5.0302   18.6121 C   0  0  0  0  0  0  0  0  0  0  0  0
    8.6457   -5.8404   16.6794 C   0  0  0  0  0  0  0  0  0  0  0  0
   10.8657   -5.0665   21.4479 C   0  0  0  0  0  0  0  0  0  0  0  0
   10.9095   -3.5370   23.3416 C   0  0  0  0  0  0  0  0  0  0  0  0
   10.6193   -4.2351   25.4936 N   0  0  0  0  0  0  0  0  0  0  0  0
   10.1861   -1.5839   24.5385 C   0  0  0  0  0  0  0  0  0  0  0  0
    5.3926   -7.6914   17.5529 C   0  0  0  0  0  0  0  0  0  0  0  0
   10.2045   -2.9635   25.8480 C   0  0  0  0  0  0  0  0  0  0  0  0
    5.9881   -9.4496   16.1467 C   0  0  0  0  0  0  0  0  0  0  0  0
   11.1284   -2.9218   19.8206 C   0  0  0  0  0  0  0  0  0  0  0  0
   10.6434   -3.5060   17.0652 C   0  0  0  0  0  0  0  0  0  0  0  0
    8.0148   -6.6804   16.3060 C   0  0  0  0  0  0  0  0  0  0  0  0
   11.2058   -2.8642   21.0811 C   0  0  0  0  0  0  0  0  0  0  0  0
   11.0136   -3.7472   22.0065 C   0  0  0  0  0  0  0  0  0  0  0  0
   11.0691   -4.4619   24.2786 O   0  0  0  0  0  0  0  0  0  0  0  0
    6.3845   -8.4129   16.9889 C   0  0  0  0  0  0  0  0  0  0  0  0
    4.0217   -7.9785   17.2977 C   0  0  0  0  0  0  0  0  0  0  0  0
   10.4607   -2.3757   23.8820 N   0  0  0  0  0  0  0  0  0  0  0  0
    9.7738   -2.4695   26.7957 O   0  0  0  0  0  0  0  0  0  0  0  0
    8.7120   -8.0466   17.9028 C   0  0  0  0  0  0  0  0  0  0  0  0
   10.4489   -3.4753   17.3302 N   0  0  0  0  0  0  0  0  0  0  0  0
   10.5902   -5.4322   20.0416 C   0  0  0  0  0  0  0  0  0  0  0  0
    7.7639   -7.7974   17.0236 C   0  0  0  0  0  0  0  0  0  0  0  0
   10.8543   -3.6840   19.1625 C   0  0  0  0  0  0  0  0  0  0  0  0
    4.7099   -9.7076   15.9344 C   0  0  0  0  0  0  0  0  0  0  0  0
  1  3  4  0
  1 24  4  0
  2 15  2  0
  3  5  1  0
  3  6  4  0
  4 21  4  0
  4 29  4  0
  5 26  4  0
  5 28  1  0
  6 16  4  0
  7 18  4  0
  7 26  4  0
  8 18  1  0
  8 19  4  0
  8 22  4  0
  9 12  4  0
  9 19  4  0
 10 12  4  0
 10 22  1  0
 11 20  4  0
 11 21  4  0
 12 23  2  0
 13 20  4  0
 13 29  4  0
 14 17  4  0
 14 28  4  0
 15 25  1  0
 16 27  4  0
 17 18  4  0
 20 27  1  0
 24 27  4  0
M  END
$$$$

 Created by Python create_sdf_string function

 29 47  0  0  0  0  0  0  0  0999 V2000
    3.6869   -8.3364   16.9921 C   0  0  0  0  0  0  0  0  0  0  0  0
    9.9406   -4.9936   18.1497 N   0  0  0  0  0  0  0  0  0  0  0  0
    7.8061   -5.1921   17.1537 C   0  0  0  0  0  0  0  0  0  0  0  0
   11.6525   -4.5532   21.9520 O   0  0  0  0  0  0  0  0  0  0  0  0
   10.9643   -3.8622   22.7743 C   0  0  0  0  0  0  0  0  0  0  0  0
   10.7044   -3.9299   25.6251 N   0  0  0  0  0  0  0  0  0  0  0  0
    5.2711   -8.2079   17.4451 C   0  0  0  0  0  0  0  0  0  0  0  0
   10.2030   -3.3606   26.3367 C   0  0  0  0  0  0  0  0  0  0  0  0
    6.2116   -9.1497   16.5236 C   0  0  0  0  0  0  0  0  0  0  0  0
   10.9907   -2.5078   19.6178 C   0  0  0  0  0  0  0  0  0  0  0  0
   10.7984   -3.6262   17.4069 N   0  0  0  0  0  0  0  0  0  0  0  0
   11.3706   -3.7000   22.0017 C   0  0  0  0  0  0  0  0  0  0  0  0
   11.2079   -4.5026   24.4726 O   0  0  0  0  0  0  0  0  0  0  0  0
    6.5854   -8.3111   16.8068 C   0  0  0  0  0  0  0  0  0  0  0  0
    4.1046   -8.1833   17.2459 C   0  0  0  0  0  0  0  0  0  0  0  0
    9.7856   -2.1422   24.3106 O   0  0  0  0  0  0  0  0  0  0  0  0
    9.8696   -2.6173   26.8794 O   0  0  0  0  0  0  0  0  0  0  0  0
    8.8392   -7.8086   18.1655 S   0  0  0  0  0  0  0  0  0  0  0  0
   10.3201   -3.3614   16.4100 N   0  0  0  0  0  0  0  0  0  0  0  0
   10.5345   -5.1388   19.8511 C   0  0  0  0  0  0  0  0  0  0  0  0
    8.0090   -7.8444   16.9732 C   0  0  0  0  0  0  0  0  0  0  0  0
   10.8382   -3.3831   19.3915 C   0  0  0  0  0  0  0  0  0  0  0  0
    5.1460   -9.5286   15.5782 C   0  0  0  0  0  0  0  0  0  0  0  0
   10.3459   -7.7741   18.3068 He  0  0  0  0  0  0  0  0  0  0  0  0
   10.0262   -3.7181   16.3665 He  0  0  0  0  0  0  0  0  0  0  0  0
   10.0173   -5.7924   17.1994 He  0  0  0  0  0  0  0  0  0  0  0  0
   10.2668   -1.9684   24.3415 He  0  0  0  0  0  0  0  0  0  0  0  0
    7.7615   -7.1815   16.8941 He  0  0  0  0  0  0  0  0  0  0  0  0
   11.0798   -3.2322   20.8878 He  0  0  0  0  0  0  0  0  0  0  0  0
  1  2  1  0
  1  4  2  0
  1  6  4  0
  1 11  3  0
  1 15  4  0
  1 17  1  0
  1 20  4  0
  1 23  4  0
  2  6  4  0
  2 10  3  0
  2 14  3  0
  2 17  1  0
  2 20  4  0
  3  6  1  0
  3  7  3  0
  3 12  4  0
  3 14  3  0
  3 20  3  0
  4  5  3  0
  4 12  4  0
  5 12  1  0
  5 13  4  0
  5 16  4  0
  6  9  4  0
  6 13  4  0
  6 21  3  0
  6 23  3  0
  7 15  4  0
  7 16  4  0
  7 22  2  0
  8 15  4  0
  8 17  2  0
  8 18  1  0
  9 14  4  0
  9 15  1  0
  9 16  3  0
 10 14  4  0
 10 22  4  0
 11 18  3  0
 11 23  3  0
 14 22  1  0
 15 18  1  0
 17 23  3  0
 18 19  2  0
 18 21  4  0
 19 23  3  0
 20 21  2  0
M  END
$$$$

 Created by Python create_sdf_string function

 29 30  0  0  0  0  0  0  0  0999 V2000
    9.8223   -7.2707   18.2722 N   0  0  0  0  0  0  0  0  0  0  0  0
    9.6620   -3.8890   16.1736 N   0  0  0  0  0  0  0  0  0  0  0  0
    9.7128   -5.9019   17.7910 C   0  0  0  0  0  0  0  0  0  0  0  0
    3.8254   -8.9945   16.3780 C   0  0  0  0  0  0  0  0  0  0  0  0
   10.3940   -4.7907   18.2153 N   0  0  0  0  0  0  0  0  0  0  0  0
    8.8457   -5.7282   16.8882 C   0  0  0  0  0  0  0  0  0  0  0  0
   11.1306   -4.9190   21.3377 C   0  0  0  0  0  0  0  0  0  0  0  0
   10.7802   -3.4869   23.3079 C   0  0  0  0  0  0  0  0  0  0  0  0
   10.8009   -4.1514   25.5841 N   0  0  0  0  0  0  0  0  0  0  0  0
    9.7981   -2.0510   24.9385 C   0  0  0  0  0  0  0  0  0  0  0  0
    5.4077   -7.8617   17.7141 C   0  0  0  0  0  0  0  0  0  0  0  0
   10.1555   -2.9522   25.8998 C   0  0  0  0  0  0  0  0  0  0  0  0
    6.1596   -9.2230   16.0240 C   0  0  0  0  0  0  0  0  0  0  0  0
   11.0703   -2.8523   19.6120 C   0  0  0  0  0  0  0  0  0  0  0  0
   10.7711   -3.2724   16.9920 N   0  0  0  0  0  0  0  0  0  0  0  0
    7.9405   -6.5173   16.5800 C   0  0  0  0  0  0  0  0  0  0  0  0
   11.1265   -2.7427   21.0092 C   0  0  0  0  0  0  0  0  0  0  0  0
   11.0431   -3.7280   21.8861 C   0  0  0  0  0  0  0  0  0  0  0  0
   11.0695   -4.4195   24.2380 N   0  0  0  0  0  0  0  0  0  0  0  0
    6.4577   -8.3105   17.0386 C   0  0  0  0  0  0  0  0  0  0  0  0
    4.0932   -8.1337   17.2729 C   0  0  0  0  0  0  0  0  0  0  0  0
   10.1608   -2.2744   23.6639 C   0  0  0  0  0  0  0  0  0  0  0  0
    9.8642   -2.6834   27.1417 O   0  0  0  0  0  0  0  0  0  0  0  0
    8.8375   -8.1104   17.9159 C   0  0  0  0  0  0  0  0  0  0  0  0
   10.6314   -3.3378   16.6375 N   0  0  0  0  0  0  0  0  0  0  0  0
   10.9236   -5.3470   20.2318 C   0  0  0  0  0  0  0  0  0  0  0  0
    7.7870   -7.7010   17.1427 C   0  0  0  0  0  0  0  0  0  0  0  0
   10.8163   -3.9081   18.9905 C   0  0  0  0  0  0  0  0  0  0  0  0
    4.8931   -9.5386   15.6854 C   0  0  0  0  0  0  0  0  0  0  0  0
  1  3  4  0
  1 24  4  0
  2 15  2  0
  3  5  1  0
  3  6  4  0
  4 21  4  0
  4 29  4  0
  5 28  4  0
  6 16  4  0
  7 18  4  0
  7 26  4  0
  8 18  1  0
  8 19  4  0
  8 22  4  0
  9 12  4  0
  9 19  4  0
 10 12  4  0
 10 22  4  0
 11 20  4  0
 11 21  4  0
 12 23  2  0
 13 20  4  0
 13 29  4  0
 14 17  4  0
 14 28  4  0
 15 25  1  0
 16 27  4  0
 17 18  4  0
 20 27  1  0
 24 27  4  0
M  END
$$$$

 Created by Python create_sdf_string function

 29 80  0  0  0  0  0  0  0  0999 V2000
   10.1436   -6.8356   18.3461 N   0  0  0  0  0  0  0  0  0  0  0  0
    9.4487   -6.0833   17.5431 C   0  0  0  0  0  0  0  0  0  0  0  0
    4.0099   -9.3952   16.4626 C   0  0  0  0  0  0  0  0  0  0  0  0
    9.7479   -4.6204   18.4627 N   0  0  0  0  0  0  0  0  0  0  0  0
    8.6827   -6.3011   16.9404 C   0  0  0  0  0  0  0  0  0  0  0  0
   10.7280   -4.8136   21.4871 C   0  0  0  0  0  0  0  0  0  0  0  0
   10.0782   -3.3404   23.6932 C   0  0  0  0  0  0  0  0  0  0  0  0
   10.6778   -3.8116   25.5935 N   0  0  0  0  0  0  0  0  0  0  0  0
    9.3591   -2.0363   24.2609 C   0  0  0  0  0  0  0  0  0  0  0  0
    4.9200   -8.3190   16.8898 C   0  0  0  0  0  0  0  0  0  0  0  0
   10.3718   -3.2279   25.4872 C   0  0  0  0  0  0  0  0  0  0  0  0
   10.1039   -3.2581   16.7936 N   0  0  0  0  0  0  0  0  0  0  0  0
    8.3383   -6.6458   16.7308 C   0  0  0  0  0  0  0  0  0  0  0  0
   11.7798   -2.9849   21.5488 C   0  0  0  0  0  0  0  0  0  0  0  0
   10.6844   -3.4094   21.8911 C   0  0  0  0  0  0  0  0  0  0  0  0
   11.0841   -4.3480   24.2250 N   0  0  0  0  0  0  0  0  0  0  0  0
    6.4930   -8.5169   17.2901 C   0  0  0  0  0  0  0  0  0  0  0  0
    4.0838   -7.4551   16.6741 C   0  0  0  0  0  0  0  0  0  0  0  0
    9.8929   -2.6849   23.0566 C   0  0  0  0  0  0  0  0  0  0  0  0
    9.5268   -2.4783   27.2903 O   0  0  0  0  0  0  0  0  0  0  0  0
    9.0262   -8.3206   17.8706 C   0  0  0  0  0  0  0  0  0  0  0  0
   11.3708   -3.9617   16.2381 N   0  0  0  0  0  0  0  0  0  0  0  0
   10.8451   -5.2059   20.6583 C   0  0  0  0  0  0  0  0  0  0  0  0
    7.6467   -7.6934   17.1793 C   0  0  0  0  0  0  0  0  0  0  0  0
   11.3245   -3.5215   19.0806 C   0  0  0  0  0  0  0  0  0  0  0  0
    4.5616   -9.9584   14.9694 C   0  0  0  0  0  0  0  0  0  0  0  0
    8.9282   -3.9568   16.8911 He  0  0  0  0  0  0  0  0  0  0  0  0
    6.0780   -9.0247   15.8483 He  0  0  0  0  0  0  0  0  0  0  0  0
   11.2683   -2.9101   19.7211 He  0  0  0  0  0  0  0  0  0  0  0  0
  1  2  4  0
  1 12  4  0
  1 13  3  0
  1 16  2  0
  1 18  2  0
  2  4  3  0
  2  5  3  0
  2  6  2  0
  2  8  2  0
  2  9  4  0
  2 18  4  0
  2 21  1  0
  3  7  2  0
  3 12  3  0
  3 18  4  0
  3 24  2  0
  3 26  4  0
  4 12  2  0
  4 17  4  0
  4 23  1  0
  4 25  4  0
  5 13  4  0
  5 14  4  0
  5 17  3  0
  5 18  3  0
  5 25  4  0
  6 11  3  0
  6 15  4  0
  6 22  4  0
  7 12  1  0
  7 15  1  0
  7 16  4  0
  7 22  2  0
  8 11  4  0
  8 15  3  0
  8 16  4  0
  8 18  3  0
  9 10  4  0
  9 11  4  0
  9 19  4  0
  9 21  2  0
  9 22  3  0
 10 12  2  0
 10 16  1  0
 10 17  4  0
 10 18  4  0
 10 19  4  0
 10 23  3  0
 10 24  1  0
 11 13  3  0
 11 14  4  0
 11 17  2  0
 11 19  1  0
 11 20  2  0
 12 19  3  0
 12 22  1  0
 12 23  1  0
 12 25  4  0
 12 26  3  0
 13 16  3  0
 13 20  3  0
 13 22  2  0
 13 24  4  0
 13 26  4  0
 14 15  4  0
 14 18  1  0
 14 22  4  0
 14 23  2  0
 14 25  2  0
 15 20  2  0
 16 21  4  0
 17 23  1  0
 17 24  1  0
 19 20  2  0
 21 24  4  0
 22 23  4  0
 22 24  2  0
 22 25  2  0
 24 25  1  0
 24 26  4  0
M  END
$$$$

 Created by Python create_sdf_string function

 29 33  0  0  0  0  0  0  0  0999 V2000
    9.7262   -7.2617   18.3097 N   0  0  0  0  0  0  0  0  0  0  0  0
    9.2270   -3.8373   16.1793 O   0  0  0  0  0  0  0  0  0  0  0  0
    9.6537   -5.9432   17.8411 C   0  0  0  0  0  0  0  0  0  0  0  0
    3.8550   -8.9744   16.0421 C   0  0  0  0  0  0  0  0  0  0  0  0
   10.3389   -4.7887   18.5276 N   0  0  0  0  0  0  0  0  0  0  0  0
    8.8424   -5.7438   16.9251 C   0  0  0  0  0  0  0  0  0  0  0  0
   10.6620   -4.9051   21.2271 C   0  0  0  0  0  0  0  0  0  0  0  0
   10.6619   -3.4220   23.2462 C   0  0  0  0  0  0  0  0  0  0  0  0
   10.6414   -3.9684   25.5371 N   0  0  0  0  0  0  0  0  0  0  0  0
    9.4787   -2.0108   24.8368 C   0  0  0  0  0  0  0  0  0  0  0  0
    5.2988   -7.8016   17.3655 C   0  0  0  0  0  0  0  0  0  0  0  0
    9.8809   -2.8545   25.8198 C   0  0  0  0  0  0  0  0  0  0  0  0
    6.1742   -9.2854   15.8965 N   0  0  0  0  0  0  0  0  0  0  0  0
   11.1889   -2.8071   19.7130 C   0  0  0  0  0  0  0  0  0  0  0  0
   10.1140   -3.8926   16.7791 C   0  0  0  0  0  0  0  0  0  0  0  0
    7.9110   -6.4600   16.4091 C   0  0  0  0  0  0  0  0  0  0  0  0
   11.3613   -2.7829   20.9467 C   0  0  0  0  0  0  0  0  0  0  0  0
   10.9308   -3.7026   21.9210 C   0  0  0  0  0  0  0  0  0  0  0  0
   10.9668   -4.2590   24.2344 N   0  0  0  0  0  0  0  0  0  0  0  0
    6.4650   -8.3028   16.7707 C   0  0  0  0  0  0  0  0  0  0  0  0
    4.0699   -8.0732   16.9838 C   0  0  0  0  0  0  0  0  0  0  0  0
    9.9083   -2.2719   23.5336 C   0  0  0  0  0  0  0  0  0  0  0  0
    9.5313   -2.5573   27.1115 O   0  0  0  0  0  0  0  0  0  0  0  0
    8.6834   -8.0953   17.8625 C   0  0  0  0  0  0  0  0  0  0  0  0
   11.4600   -3.5391   16.4474 N   0  0  0  0  0  0  0  0  0  0  0  0
   10.4715   -5.1443   19.9563 C   0  0  0  0  0  0  0  0  0  0  0  0
    7.7003   -7.6857   17.0032 C   0  0  0  0  0  0  0  0  0  0  0  0
   10.8287   -3.7302   18.9561 C   0  0  0  0  0  0  0  0  0  0  0  0
    4.9703   -9.5826   15.4609 C   0  0  0  0  0  0  0  0  0  0  0  0
  1  3  4  0
  1 24  4  0
  2 15  2  0
  3  5  1  0
  3  6  4  0
  4 21  4  0
  4 29  4  0
  5 15  1  0
  5 26  4  0
  5 28  4  0
  6 15  1  0
  6 16  4  0
  7 18  4  0
  7 26  4  0
  8 18  1  0
  8 19  4  0
  8 22  4  0
  9 12  4  0
  9 19  4  0
 10 12  4  0
 10 22  4  0
 11 20  4  0
 11 21  4  0
 12 23  2  0
 13 20  4  0
 13 29  4  0
 14 17  4  0
 14 28  4  0
 15 25  1  0
 16 27  4  0
 17 18  4  0
 20 27  1  0
 24 27  4  0
M  END
$$$$

 Created by Python create_sdf_string function

 29 53  0  0  0  0  0  0  0  0999 V2000
    9.6653   -6.8452   18.0086 N   0  0  0  0  0  0  0  0  0  0  0  0
    9.8336   -2.8603   16.2976 O   0  0  0  0  0  0  0  0  0  0  0  0
   10.3190   -6.2356   17.7635 O   0  0  0  0  0  0  0  0  0  0  0  0
    3.9888   -8.7141   16.1964 C   0  0  0  0  0  0  0  0  0  0  0  0
    8.2673   -5.4716   16.5380 C   0  0  0  0  0  0  0  0  0  0  0  0
   10.9611   -5.1475   20.6522 F   0  0  0  0  0  0  0  0  0  0  0  0
    9.8046   -3.0678   22.6899 C   0  0  0  0  0  0  0  0  0  0  0  0
   10.5960   -4.2300   25.9321 N   0  0  0  0  0  0  0  0  0  0  0  0
    9.1894   -2.9098   25.1216 C   0  0  0  0  0  0  0  0  0  0  0  0
    5.8598   -7.8539   16.7771 C   0  0  0  0  0  0  0  0  0  0  0  0
    6.3530   -9.0463   16.0207 O   0  0  0  0  0  0  0  0  0  0  0  0
   11.3220   -3.0193   19.9796 C   0  0  0  0  0  0  0  0  0  0  0  0
    9.7665   -3.7934   17.3099 C   0  0  0  0  0  0  0  0  0  0  0  0
    7.6536   -6.4320   16.7798 C   0  0  0  0  0  0  0  0  0  0  0  0
   11.2752   -4.0143   24.6101 N   0  0  0  0  0  0  0  0  0  0  0  0
    6.1414   -8.6057   16.9952 S   0  0  0  0  0  0  0  0  0  0  0  0
    4.1245   -8.6270   16.9198 C   0  0  0  0  0  0  0  0  0  0  0  0
   10.2566   -2.0631   23.6724 C   0  0  0  0  0  0  0  0  0  0  0  0
    9.7433   -2.5517   27.0962 F   0  0  0  0  0  0  0  0  0  0  0  0
    8.3237   -7.8808   17.1185 C   0  0  0  0  0  0  0  0  0  0  0  0
   11.3056   -4.0392   17.2080 F   0  0  0  0  0  0  0  0  0  0  0  0
    7.7089   -7.5923   17.2855 C   0  0  0  0  0  0  0  0  0  0  0  0
   10.9957   -4.1758   18.3542 C   0  0  0  0  0  0  0  0  0  0  0  0
    4.7952   -9.2421   15.4331 C   0  0  0  0  0  0  0  0  0  0  0  0
   10.6814   -5.2180   17.9909 He  0  0  0  0  0  0  0  0  0  0  0  0
    9.8272   -1.9308   26.2810 He  0  0  0  0  0  0  0  0  0  0  0  0
   11.8191   -2.7403   21.1374 He  0  0  0  0  0  0  0  0  0  0  0  0
   10.7687   -3.5094   22.0438 He  0  0  0  0  0  0  0  0  0  0  0  0
   10.3740   -5.2906   19.7335 He  0  0  0  0  0  0  0  0  0  0  0  0
  1  3  4  0
  1 10  1  0
  1 12  3  0
  1 20  4  0
  2  3  1  0
  2 13  2  0
  2 14  4  0
  2 15  1  0
  2 23  2  0
  2 24  4  0
  3  5  4  0
  3  6  2  0
  3  9  4  0
  3 10  4  0
  4  7  2  0
  4 12  4  0
  4 14  3  0
  4 17  4  0
  4 20  2  0
  4 24  3  0
  5 14  4  0
  5 15  3  0
  6 10  1  0
  6 14  3  0
  6 20  2  0
  7 11  2  0
  7 15  4  0
  7 18  4  0
  8 10  1  0
  8 15  4  0
  8 21  3  0
  8 23  1  0
  9 18  3  0
 10 16  4  0
 10 17  4  0
 11 16  4  0
 11 23  1  0
 11 24  4  0
 12 23  4  0
 13 14  1  0
 13 19  4  0
 13 21  1  0
 14 15  1  0
 14 20  1  0
 14 22  4  0
 14 23  3  0
 14 24  4  0
 15 20  4  0
 15 23  3  0
 16 21  3  0
 16 23  2  0
 18 22  2  0
 20 22  4  0
M  END
$$$$

 Created by Python create_sdf_string function

 29 32  0  0  0  0  0  0  0  0999 V2000
    9.6528   -7.1888   18.0514 C   0  0  0  0  0  0  0  0  0  0  0  0
    9.6906   -3.2646   16.1488 O   0  0  0  0  0  0  0  0  0  0  0  0
    9.5728   -5.9187   17.6503 C   0  0  0  0  0  0  0  0  0  0  0  0
    3.8345   -9.0370   15.9774 C   0  0  0  0  0  0  0  0  0  0  0  0
   10.3915   -4.6916   17.9496 N   0  0  0  0  0  0  0  0  0  0  0  0
    8.5718   -5.5869   16.7019 C   0  0  0  0  0  0  0  0  0  0  0  0
   10.6452   -4.8730   21.4145 C   0  0  0  0  0  0  0  0  0  0  0  0
   10.6047   -3.3902   23.3254 C   0  0  0  0  0  0  0  0  0  0  0  0
   10.6102   -3.9223   25.6078 N   0  0  0  0  0  0  0  0  0  0  0  0
    9.4382   -1.9892   24.9278 C   0  0  0  0  0  0  0  0  0  0  0  0
    5.2504   -7.8736   17.4267 C   0  0  0  0  0  0  0  0  0  0  0  0
    9.8665   -2.8249   25.9152 C   0  0  0  0  0  0  0  0  0  0  0  0
    6.1645   -9.1519   15.7546 N   0  0  0  0  0  0  0  0  0  0  0  0
   11.2364   -2.9930   19.6553 C   0  0  0  0  0  0  0  0  0  0  0  0
   10.4345   -3.8308   16.9304 C   0  0  0  0  0  0  0  0  0  0  0  0
    7.6814   -6.2793   16.4380 C   0  0  0  0  0  0  0  0  0  0  0  0
   11.3501   -2.7676   20.9907 C   0  0  0  0  0  0  0  0  0  0  0  0
   10.8725   -3.6860   21.9192 C   0  0  0  0  0  0  0  0  0  0  0  0
   10.9470   -4.1994   24.3095 N   0  0  0  0  0  0  0  0  0  0  0  0
    6.4001   -8.2306   16.7278 C   0  0  0  0  0  0  0  0  0  0  0  0
    3.9629   -8.2162   17.0166 C   0  0  0  0  0  0  0  0  0  0  0  0
    9.8670   -2.2770   23.6567 C   0  0  0  0  0  0  0  0  0  0  0  0
    9.5397   -2.5519   27.1971 F   0  0  0  0  0  0  0  0  0  0  0  0
    8.6470   -8.0392   17.6391 C   0  0  0  0  0  0  0  0  0  0  0  0
   11.6230   -3.5011   16.7252 N   0  0  0  0  0  0  0  0  0  0  0  0
   10.6125   -5.2653   20.2615 C   0  0  0  0  0  0  0  0  0  0  0  0
    7.5410   -7.5757   16.9293 C   0  0  0  0  0  0  0  0  0  0  0  0
   10.8408   -4.2390   19.2051 C   0  0  0  0  0  0  0  0  0  0  0  0
    4.9317   -9.5269   15.3318 C   0  0  0  0  0  0  0  0  0  0  0  0
  1  3  4  0
  1 24  4  0
  2 15  2  0
  3  5  1  0
  3  6  4  0
  4 21  4  0
  4 29  4  0
  5 15  1  0
  5 28  1  0
  6 16  4  0
  7 18  4  0
  7 26  4  0
  8 18  1  0
  8 19  4  0
  8 22  4  0
  9 12  4  0
  9 19  4  0
 10 12  4  0
 10 22  4  0
 11 20  4  0
 11 21  4  0
 12 23  1  0
 13 20  4  0
 13 29  4  0
 14 17  4  0
 14 28  4  0
 15 25  1  0
 16 27  4  0
 17 18  4  0
 20 27  1  0
 24 27  4  0
 26 28  4  0
M  END
$$$$

 Created by Python create_sdf_string function

 29 47  0  0  0  0  0  0  0  0999 V2000
    9.4640   -3.0174   15.8631 O   0  0  0  0  0  0  0  0  0  0  0  0
    9.9931   -5.9968   17.5574 C   0  0  0  0  0  0  0  0  0  0  0  0
    3.7169   -9.3194   15.5174 C   0  0  0  0  0  0  0  0  0  0  0  0
   10.5446   -4.7948   17.8373 N   0  0  0  0  0  0  0  0  0  0  0  0
    8.7737   -6.0136   17.0497 C   0  0  0  0  0  0  0  0  0  0  0  0
   10.6297   -4.9406   21.9374 C   0  0  0  0  0  0  0  0  0  0  0  0
   10.2939   -3.8876   23.8061 O   0  0  0  0  0  0  0  0  0  0  0  0
    9.4851   -2.3718   24.0877 I   0  0  0  0  0  0  0  0  0  0  0  0
    5.1408   -8.2699   17.4770 C   0  0  0  0  0  0  0  0  0  0  0  0
   10.3065   -3.1153   25.7147 C   0  0  0  0  0  0  0  0  0  0  0  0
    6.3078   -9.1259   16.3577 N   0  0  0  0  0  0  0  0  0  0  0  0
   11.1623   -2.8929   19.6512 C   0  0  0  0  0  0  0  0  0  0  0  0
   10.3261   -4.2148   17.3511 C   0  0  0  0  0  0  0  0  0  0  0  0
    7.3306   -5.8380   16.6116 C   0  0  0  0  0  0  0  0  0  0  0  0
   10.9227   -2.4459   21.4642 C   0  0  0  0  0  0  0  0  0  0  0  0
   11.1844   -3.5065   22.0093 C   0  0  0  0  0  0  0  0  0  0  0  0
   10.9505   -4.2663   24.4001 P   0  0  0  0  0  0  0  0  0  0  0  0
    6.1028   -8.3976   16.8940 S   0  0  0  0  0  0  0  0  0  0  0  0
   10.0926   -2.0752   23.5768 C   0  0  0  0  0  0  0  0  0  0  0  0
    9.5867   -2.3828   27.0085 F   0  0  0  0  0  0  0  0  0  0  0  0
    8.3825   -8.2033   16.8498 C   0  0  0  0  0  0  0  0  0  0  0  0
   10.6754   -5.3011   20.3425 C   0  0  0  0  0  0  0  0  0  0  0  0
    7.6551   -7.4143   17.0032 C   0  0  0  0  0  0  0  0  0  0  0  0
    9.9976   -6.4380   17.8085 He  0  0  0  0  0  0  0  0  0  0  0  0
   10.3433   -4.5241   25.2567 He  0  0  0  0  0  0  0  0  0  0  0  0
    4.3626   -8.1029   17.9679 He  0  0  0  0  0  0  0  0  0  0  0  0
   11.2334   -3.9045   16.4878 He  0  0  0  0  0  0  0  0  0  0  0  0
   11.0328   -4.0072   19.0638 He  0  0  0  0  0  0  0  0  0  0  0  0
    4.9779   -9.3426   14.9174 He  0  0  0  0  0  0  0  0  0  0  0  0
  1 12  3  0
  1 13  2  0
  1 18  1  0
  1 23  4  0
  2  4  1  0
  2 16  2  0
  2 18  3  0
  3  9  4  0
  3 21  4  0
  3 23  2  0
  4  7  4  0
  4 10  4  0
  4 12  1  0
  5  8  4  0
  5 10  2  0
  5 12  1  0
  5 14  4  0
  5 16  2  0
  5 21  1  0
  6 16  4  0
  6 22  4  0
  7  9  1  0
  8 10  4  0
  8 14  4  0
  8 19  2  0
  8 23  1  0
  9 14  3  0
  9 18  4  0
  9 23  1  0
 10 13  1  0
 10 15  2  0
 10 20  1  0
 11 18  4  0
 12 15  4  0
 12 19  3  0
 13 20  2  0
 14 20  3  0
 14 23  4  0
 15 16  4  0
 15 23  4  0
 18 20  3  0
 18 22  4  0
 18 23  2  0
 19 21  1  0
 20 21  2  0
 21 23  3  0
 22 23  4  0
M  END
$$$$

 Created by Python create_sdf_string function

 29 32  0  0  0  0  0  0  0  0999 V2000
    9.6823   -7.0913   17.7887 C   0  0  0  0  0  0  0  0  0  0  0  0
    9.7052   -3.1914   16.0478 O   0  0  0  0  0  0  0  0  0  0  0  0
    9.5220   -5.7989   17.5376 C   0  0  0  0  0  0  0  0  0  0  0  0
    3.8597   -9.1838   16.0397 C   0  0  0  0  0  0  0  0  0  0  0  0
   10.3695   -4.7387   17.9245 N   0  0  0  0  0  0  0  0  0  0  0  0
    8.4030   -5.4953   16.7531 C   0  0  0  0  0  0  0  0  0  0  0  0
   10.8951   -4.9951   21.4560 C   0  0  0  0  0  0  0  0  0  0  0  0
   10.6655   -3.4466   23.3096 C   0  0  0  0  0  0  0  0  0  0  0  0
   10.5401   -4.1353   25.6261 C   0  0  0  0  0  0  0  0  0  0  0  0
    9.5732   -2.0157   24.9159 C   0  0  0  0  0  0  0  0  0  0  0  0
    5.1554   -8.0432   17.4945 C   0  0  0  0  0  0  0  0  0  0  0  0
    9.8685   -2.9581   25.8714 C   0  0  0  0  0  0  0  0  0  0  0  0
    6.1463   -9.1976   15.6803 N   0  0  0  0  0  0  0  0  0  0  0  0
   10.9937   -3.0401   19.6527 C   0  0  0  0  0  0  0  0  0  0  0  0
   10.5145   -3.7713   16.8149 C   0  0  0  0  0  0  0  0  0  0  0  0
    7.4286   -6.2220   16.4769 C   0  0  0  0  0  0  0  0  0  0  0  0
   11.1651   -2.7772   20.9240 C   0  0  0  0  0  0  0  0  0  0  0  0
   10.9078   -3.7603   21.8914 C   0  0  0  0  0  0  0  0  0  0  0  0
   10.9511   -4.4108   24.2873 C   0  0  0  0  0  0  0  0  0  0  0  0
    6.3280   -8.2614   16.7179 C   0  0  0  0  0  0  0  0  0  0  0  0
    3.9988   -8.4467   17.0801 N   0  0  0  0  0  0  0  0  0  0  0  0
   10.0467   -2.2860   23.6019 C   0  0  0  0  0  0  0  0  0  0  0  0
    9.4512   -2.7046   27.1200 F   0  0  0  0  0  0  0  0  0  0  0  0
    8.6753   -7.9497   17.4416 C   0  0  0  0  0  0  0  0  0  0  0  0
   11.7720   -3.5527   16.4475 N   0  0  0  0  0  0  0  0  0  0  0  0
   10.8158   -5.3075   20.1160 C   0  0  0  0  0  0  0  0  0  0  0  0
    7.4864   -7.5055   16.8720 C   0  0  0  0  0  0  0  0  0  0  0  0
   10.7494   -4.3453   19.2359 C   0  0  0  0  0  0  0  0  0  0  0  0
    4.9542   -9.5884   15.3455 C   0  0  0  0  0  0  0  0  0  0  0  0
  1  3  4  0
  1 24  4  0
  2 15  2  0
  3  5  1  0
  3  6  4  0
  4 21  4  0
  4 29  4  0
  5 15  1  0
  5 28  1  0
  6 16  4  0
  7 18  4  0
  7 26  4  0
  8 18  1  0
  8 19  4  0
  8 22  4  0
  9 12  4  0
  9 19  4  0
 10 12  4  0
 10 22  4  0
 11 20  4  0
 11 21  4  0
 12 23  1  0
 13 20  4  0
 13 29  4  0
 14 17  4  0
 14 28  4  0
 15 25  1  0
 16 27  4  0
 17 18  4  0
 20 27  1  0
 24 27  4  0
 26 28  4  0
M  END
$$$$

 Created by Python create_sdf_string function

 29 61  0  0  0  0  0  0  0  0999 V2000
    9.8437   -7.3330   16.9925 C   0  0  0  0  0  0  0  0  0  0  0  0
    9.8568   -3.3214   15.8410 O   0  0  0  0  0  0  0  0  0  0  0  0
    4.2093   -8.6227   15.8399 C   0  0  0  0  0  0  0  0  0  0  0  0
   10.6327   -4.7226   18.7780 N   0  0  0  0  0  0  0  0  0  0  0  0
   11.5918   -3.5683   23.3764 C   0  0  0  0  0  0  0  0  0  0  0  0
   10.8710   -3.9096   25.4367 C   0  0  0  0  0  0  0  0  0  0  0  0
    9.2099   -2.9069   25.0376 C   0  0  0  0  0  0  0  0  0  0  0  0
    4.6822   -8.3020   17.1525 C   0  0  0  0  0  0  0  0  0  0  0  0
    9.5987   -2.8523   26.7194 C   0  0  0  0  0  0  0  0  0  0  0  0
    6.1860   -9.2857   15.2968 N   0  0  0  0  0  0  0  0  0  0  0  0
   10.8233   -2.9730   19.3938 C   0  0  0  0  0  0  0  0  0  0  0  0
   10.5516   -3.9825   16.8585 C   0  0  0  0  0  0  0  0  0  0  0  0
    8.0199   -6.0847   17.0683 C   0  0  0  0  0  0  0  0  0  0  0  0
   11.3149   -2.6489   20.9082 C   0  0  0  0  0  0  0  0  0  0  0  0
   10.4877   -3.7056   22.0576 C   0  0  0  0  0  0  0  0  0  0  0  0
   10.9655   -4.3544   24.2265 C   0  0  0  0  0  0  0  0  0  0  0  0
    6.3348   -8.1125   16.5262 C   0  0  0  0  0  0  0  0  0  0  0  0
    3.9540   -8.6995   16.9478 C   0  0  0  0  0  0  0  0  0  0  0  0
   10.0722   -2.0792   24.2823 C   0  0  0  0  0  0  0  0  0  0  0  0
    8.6670   -7.5917   17.3020 C   0  0  0  0  0  0  0  0  0  0  0  0
   11.0468   -5.1902   20.4194 C   0  0  0  0  0  0  0  0  0  0  0  0
    7.7368   -7.5225   16.9702 C   0  0  0  0  0  0  0  0  0  0  0  0
   10.6500   -4.4273   18.8444 C   0  0  0  0  0  0  0  0  0  0  0  0
    5.1450   -9.9433   15.3687 C   0  0  0  0  0  0  0  0  0  0  0  0
   10.0827   -5.5230   17.5003 He  0  0  0  0  0  0  0  0  0  0  0  0
    8.3981   -5.3594   16.1190 He  0  0  0  0  0  0  0  0  0  0  0  0
   10.5660   -4.6619   21.4629 He  0  0  0  0  0  0  0  0  0  0  0  0
    9.4871   -2.6024   27.3788 He  0  0  0  0  0  0  0  0  0  0  0  0
   11.8449   -3.4042   16.1173 He  0  0  0  0  0  0  0  0  0  0  0  0
  1  4  3  0
  1  5  3  0
  1  8  2  0
  1 13  2  0
  1 17  4  0
  1 19  2  0
  1 20  4  0
  2  3  1  0
  2  8  1  0
  2 12  2  0
  2 15  4  0
  2 23  4  0
  3 17  3  0
  3 18  4  0
  3 20  2  0
  3 23  3  0
  3 24  4  0
  4  7  4  0
  4 10  2  0
  4 12  1  0
  5 15  1  0
  5 18  3  0
  5 19  2  0
  5 22  4  0
  6  7  3  0
  6 10  3  0
  6 11  3  0
  6 24  4  0
  7 20  3  0
  7 22  3  0
  7 24  3  0
  8  9  3  0
  8 17  4  0
  8 23  2  0
  9 24  1  0
 10 21  3  0
 10 24  4  0
 11 14  4  0
 11 20  3  0
 11 22  3  0
 11 23  2  0
 12 17  3  0
 12 18  4  0
 12 20  3  0
 12 23  4  0
 12 24  2  0
 13 14  2  0
 13 19  3  0
 13 22  4  0
 14 15  1  0
 14 19  2  0
 14 22  2  0
 15 17  4  0
 15 21  2  0
 16 19  4  0
 16 20  4  0
 17 22  1  0
 17 24  4  0
 19 24  2  0
 20 22  4  0
 21 23  3  0
M  END
$$$$

 Created by Python create_sdf_string function

 29 32  0  0  0  0  0  0  0  0999 V2000
    9.6905   -6.9935   17.6993 C   0  0  0  0  0  0  0  0  0  0  0  0
    9.9593   -3.2688   15.9364 O   0  0  0  0  0  0  0  0  0  0  0  0
    9.5758   -5.7019   17.4033 C   0  0  0  0  0  0  0  0  0  0  0  0
    3.9785   -9.2812   15.8190 C   0  0  0  0  0  0  0  0  0  0  0  0
   10.4651   -4.7390   17.8367 N   0  0  0  0  0  0  0  0  0  0  0  0
    8.4275   -5.3650   16.6097 C   0  0  0  0  0  0  0  0  0  0  0  0
   10.8479   -4.9615   21.4743 C   0  0  0  0  0  0  0  0  0  0  0  0
   10.7393   -3.3952   23.3422 C   0  0  0  0  0  0  0  0  0  0  0  0
   10.7897   -4.0446   25.6853 C   0  0  0  0  0  0  0  0  0  0  0  0
    9.4532   -2.2349   25.0341 C   0  0  0  0  0  0  0  0  0  0  0  0
    5.1593   -7.9921   17.3161 C   0  0  0  0  0  0  0  0  0  0  0  0
    9.8868   -3.0812   26.1007 C   0  0  0  0  0  0  0  0  0  0  0  0
    6.3342   -9.1503   15.5807 N   0  0  0  0  0  0  0  0  0  0  0  0
   11.0754   -2.9953   19.6106 C   0  0  0  0  0  0  0  0  0  0  0  0
   10.7292   -3.8066   16.7371 C   0  0  0  0  0  0  0  0  0  0  0  0
    7.5088   -6.1231   16.4000 C   0  0  0  0  0  0  0  0  0  0  0  0
   11.1609   -2.7105   20.9207 C   0  0  0  0  0  0  0  0  0  0  0  0
   10.9117   -3.6561   21.9330 C   0  0  0  0  0  0  0  0  0  0  0  0
   11.1991   -4.1747   24.3997 C   0  0  0  0  0  0  0  0  0  0  0  0
    6.3591   -8.2582   16.6146 C   0  0  0  0  0  0  0  0  0  0  0  0
    3.9385   -8.5239   16.8901 C   0  0  0  0  0  0  0  0  0  0  0  0
    9.8893   -2.3203   23.7749 C   0  0  0  0  0  0  0  0  0  0  0  0
    9.4821   -2.9279   27.3737 F   0  0  0  0  0  0  0  0  0  0  0  0
    8.7120   -7.8951   17.3897 C   0  0  0  0  0  0  0  0  0  0  0  0
   12.0821   -3.4607   16.5282 C   0  0  0  0  0  0  0  0  0  0  0  0
   10.6568   -5.2149   20.1468 C   0  0  0  0  0  0  0  0  0  0  0  0
    7.4788   -7.4729   16.8072 C   0  0  0  0  0  0  0  0  0  0  0  0
   10.7687   -4.3079   19.1891 C   0  0  0  0  0  0  0  0  0  0  0  0
    5.1055   -9.6111   15.1398 C   0  0  0  0  0  0  0  0  0  0  0  0
  1  3  4  0
  1 24  4  0
  2 15  2  0
  3  5  1  0
  3  6  4  0
  4 21  4  0
  4 29  4  0
  5 15  1  0
  5 28  1  0
  6 16  4  0
  7 18  4  0
  7 26  4  0
  8 18  1  0
  8 19  4  0
  8 22  4  0
  9 12  4  0
  9 19  4  0
 10 12  4  0
 10 22  4  0
 11 20  4  0
 11 21  4  0
 12 23  1  0
 13 20  4  0
 13 29  4  0
 14 17  4  0
 14 28  4  0
 15 25  1  0
 16 27  4  0
 17 18  4  0
 20 27  1  0
 24 27  4  0
 26 28  4  0
M  END
$$$$

 Created by Python create_sdf_string function

 29 58  0  0  0  0  0  0  0  0999 V2000
    9.4997   -3.1828   15.7778 F   0  0  0  0  0  0  0  0  0  0  0  0
    9.5558   -5.8376   17.2604 C   0  0  0  0  0  0  0  0  0  0  0  0
    4.3643   -8.7988   15.7536 C   0  0  0  0  0  0  0  0  0  0  0  0
   10.2349   -4.5441   18.3013 N   0  0  0  0  0  0  0  0  0  0  0  0
    8.9262   -5.4574   16.7596 C   0  0  0  0  0  0  0  0  0  0  0  0
   11.8166   -4.9087   21.4120 C   0  0  0  0  0  0  0  0  0  0  0  0
   10.7728   -4.0728   25.1534 C   0  0  0  0  0  0  0  0  0  0  0  0
    9.5134   -1.8287   25.1688 C   0  0  0  0  0  0  0  0  0  0  0  0
    5.0854   -7.8860   17.6602 C   0  0  0  0  0  0  0  0  0  0  0  0
    9.9014   -2.6435   26.1509 C   0  0  0  0  0  0  0  0  0  0  0  0
    6.5302   -9.3735   15.3568 N   0  0  0  0  0  0  0  0  0  0  0  0
   11.1574   -3.2333   19.8145 C   0  0  0  0  0  0  0  0  0  0  0  0
   10.9842   -3.4854   17.0287 C   0  0  0  0  0  0  0  0  0  0  0  0
    7.2627   -6.2214   16.7498 N   0  0  0  0  0  0  0  0  0  0  0  0
   10.3088   -2.7823   20.8861 C   0  0  0  0  0  0  0  0  0  0  0  0
   10.7830   -3.5818   22.0128 C   0  0  0  0  0  0  0  0  0  0  0  0
   11.3084   -4.2184   24.1049 C   0  0  0  0  0  0  0  0  0  0  0  0
    6.5850   -8.2078   16.2203 C   0  0  0  0  0  0  0  0  0  0  0  0
    4.0372   -8.8813   16.6410 C   0  0  0  0  0  0  0  0  0  0  0  0
   10.6397   -2.4835   24.3938 C   0  0  0  0  0  0  0  0  0  0  0  0
    9.3585   -2.8339   27.6728 F   0  0  0  0  0  0  0  0  0  0  0  0
    8.3664   -8.3339   17.5091 C   0  0  0  0  0  0  0  0  0  0  0  0
   11.3492   -3.0305   16.5417 N   0  0  0  0  0  0  0  0  0  0  0  0
   10.6847   -5.4421   20.0420 C   0  0  0  0  0  0  0  0  0  0  0  0
    7.3148   -7.7573   16.8257 C   0  0  0  0  0  0  0  0  0  0  0  0
   10.7999   -3.6122   19.5998 C   0  0  0  0  0  0  0  0  0  0  0  0
    4.7599   -9.3867   15.1179 C   0  0  0  0  0  0  0  0  0  0  0  0
    9.5964   -7.0326   18.4098 He  0  0  0  0  0  0  0  0  0  0  0  0
   10.4227   -3.6356   23.0326 He  0  0  0  0  0  0  0  0  0  0  0  0
  1  4  4  0
  1  8  3  0
  1  9  4  0
  1 11  3  0
  1 12  3  0
  1 22  3  0
  1 25  1  0
  1 26  2  0
  2 12  3  0
  2 14  2  0
  3  6  1  0
  3 19  4  0
  3 20  3  0
  3 27  4  0
  4 13  1  0
  4 17  2  0
  4 20  2  0
  4 26  1  0
  5  6  4  0
  5 11  3  0
  5 14  4  0
  6  9  2  0
  6 11  1  0
  6 12  2  0
  6 13  2  0
  7 10  4  0
  7 17  4  0
  8 10  1  0
  8 13  2  0
  8 20  4  0
  8 26  2  0
  9 16  1  0
  9 18  4  0
 10 21  1  0
 10 23  4  0
 11 18  4  0
 11 27  4  0
 12 15  4  0
 12 26  4  0
 13 18  1  0
 13 19  2  0
 13 23  1  0
 13 25  4  0
 13 27  3  0
 14 16  1  0
 14 25  4  0
 14 27  1  0
 15 16  4  0
 15 20  3  0
 16 27  4  0
 18 19  3  0
 18 25  1  0
 19 24  1  0
 19 25  4  0
 21 22  4  0
 21 26  4  0
 22 25  4  0
 24 27  3  0
M  END
$$$$

 Created by Python create_sdf_string function

 29 32  0  0  0  0  0  0  0  0999 V2000
    9.5780   -7.0196   18.0164 C   0  0  0  0  0  0  0  0  0  0  0  0
    9.7452   -3.4304   16.0028 N   0  0  0  0  0  0  0  0  0  0  0  0
    9.4873   -5.7451   17.6084 C   0  0  0  0  0  0  0  0  0  0  0  0
    3.9445   -9.1825   15.7252 C   0  0  0  0  0  0  0  0  0  0  0  0
   10.3650   -4.7435   17.9659 N   0  0  0  0  0  0  0  0  0  0  0  0
    8.4282   -5.5232   16.7377 C   0  0  0  0  0  0  0  0  0  0  0  0
   11.1315   -4.9675   21.5389 C   0  0  0  0  0  0  0  0  0  0  0  0
   10.7133   -3.4030   23.3949 C   0  0  0  0  0  0  0  0  0  0  0  0
   10.6257   -4.1001   25.6973 C   0  0  0  0  0  0  0  0  0  0  0  0
    9.6801   -1.9925   25.0810 C   0  0  0  0  0  0  0  0  0  0  0  0
    5.1628   -8.0723   17.3214 C   0  0  0  0  0  0  0  0  0  0  0  0
    9.9559   -2.9801   26.0569 C   0  0  0  0  0  0  0  0  0  0  0  0
    6.2746   -9.0751   15.4761 N   0  0  0  0  0  0  0  0  0  0  0  0
   10.7313   -3.0389   19.6812 C   0  0  0  0  0  0  0  0  0  0  0  0
   10.5843   -3.7497   16.9160 C   0  0  0  0  0  0  0  0  0  0  0  0
    7.5527   -6.2544   16.3750 N   0  0  0  0  0  0  0  0  0  0  0  0
   10.9266   -2.7291   21.0007 C   0  0  0  0  0  0  0  0  0  0  0  0
   10.9262   -3.6870   21.9869 C   0  0  0  0  0  0  0  0  0  0  0  0
   11.0260   -4.3291   24.3655 C   0  0  0  0  0  0  0  0  0  0  0  0
    6.3248   -8.2686   16.6141 C   0  0  0  0  0  0  0  0  0  0  0  0
    3.9669   -8.4987   16.8477 C   0  0  0  0  0  0  0  0  0  0  0  0
   10.0323   -2.2301   23.7746 C   0  0  0  0  0  0  0  0  0  0  0  0
    9.5368   -2.8408   27.3092 F   0  0  0  0  0  0  0  0  0  0  0  0
    8.5705   -7.9038   17.6631 C   0  0  0  0  0  0  0  0  0  0  0  0
   11.6293   -3.0662   16.7960 N   0  0  0  0  0  0  0  0  0  0  0  0
   11.0754   -5.2774   20.2174 C   0  0  0  0  0  0  0  0  0  0  0  0
    7.4585   -7.5533   16.8595 C   0  0  0  0  0  0  0  0  0  0  0  0
   10.7508   -4.3219   19.2532 C   0  0  0  0  0  0  0  0  0  0  0  0
    5.0791   -9.5132   15.0331 C   0  0  0  0  0  0  0  0  0  0  0  0
  1  3  4  0
  1 24  4  0
  2 15  2  0
  3  5  1  0
  3  6  4  0
  4 21  4  0
  4 29  4  0
  5 15  1  0
  5 28  1  0
  6 16  4  0
  7 18  4  0
  7 26  4  0
  8 18  1  0
  8 19  4  0
  8 22  4  0
  9 12  4  0
  9 19  4  0
 10 12  4  0
 10 22  4  0
 11 20  4  0
 11 21  4  0
 12 23  1  0
 13 20  4  0
 13 29  4  0
 14 17  4  0
 14 28  4  0
 15 25  1  0
 16 27  4  0
 17 18  4  0
 20 27  1  0
 24 27  4  0
 26 28  4  0
M  END
$$$$

 Created by Python create_sdf_string function

 29 49  0  0  0  0  0  0  0  0999 V2000
    9.9537   -6.7894   18.2485 C   0  0  0  0  0  0  0  0  0  0  0  0
    9.7703   -5.8684   16.7316 C   0  0  0  0  0  0  0  0  0  0  0  0
    4.1452   -9.4643   16.1605 C   0  0  0  0  0  0  0  0  0  0  0  0
   10.8921   -4.8097   18.2010 N   0  0  0  0  0  0  0  0  0  0  0  0
    8.4188   -5.5221   17.2113 C   0  0  0  0  0  0  0  0  0  0  0  0
   10.9250   -4.9365   21.7969 Br  0  0  0  0  0  0  0  0  0  0  0  0
   11.0267   -3.4608   23.5412 C   0  0  0  0  0  0  0  0  0  0  0  0
   11.2506   -4.2068   25.8895 N   0  0  0  0  0  0  0  0  0  0  0  0
    9.9648   -2.1318   25.5519 O   0  0  0  0  0  0  0  0  0  0  0  0
    4.7278   -8.4880   17.0836 C   0  0  0  0  0  0  0  0  0  0  0  0
    9.7775   -3.2130   26.0585 C   0  0  0  0  0  0  0  0  0  0  0  0
    5.6273   -8.7982   15.1471 N   0  0  0  0  0  0  0  0  0  0  0  0
   10.7891   -2.8961   19.5490 F   0  0  0  0  0  0  0  0  0  0  0  0
    7.1779   -6.5912   16.7292 N   0  0  0  0  0  0  0  0  0  0  0  0
   11.0623   -2.3460   20.9924 C   0  0  0  0  0  0  0  0  0  0  0  0
   11.1875   -3.6727   21.6983 C   0  0  0  0  0  0  0  0  0  0  0  0
    6.3192   -7.6176   16.3024 C   0  0  0  0  0  0  0  0  0  0  0  0
    3.9963   -8.8447   16.5227 C   0  0  0  0  0  0  0  0  0  0  0  0
    9.8207   -1.9071   24.1731 C   0  0  0  0  0  0  0  0  0  0  0  0
    9.7139   -2.5884   26.8615 F   0  0  0  0  0  0  0  0  0  0  0  0
    8.2024   -7.6698   17.5169 C   0  0  0  0  0  0  0  0  0  0  0  0
   11.8583   -2.8667   16.4371 N   0  0  0  0  0  0  0  0  0  0  0  0
   11.0643   -5.1118   20.2673 C   0  0  0  0  0  0  0  0  0  0  0  0
   10.7103   -4.4134   18.4612 C   0  0  0  0  0  0  0  0  0  0  0  0
    5.2099   -9.3802   15.0312 C   0  0  0  0  0  0  0  0  0  0  0  0
    9.9786   -2.9903   16.1914 He  0  0  0  0  0  0  0  0  0  0  0  0
   11.2432   -4.0130   17.0440 He  0  0  0  0  0  0  0  0  0  0  0  0
   10.9217   -4.4624   24.7477 He  0  0  0  0  0  0  0  0  0  0  0  0
    7.9403   -7.5795   16.8142 He  0  0  0  0  0  0  0  0  0  0  0  0
  1  3  3  0
  1 14  4  0
  1 21  4  0
  2  4  1  0
  2  5  4  0
  2 14  1  0
  2 15  1  0
  2 25  2  0
  3  9  1  0
  3 18  4  0
  3 19  4  0
  3 25  4  0
  4 12  1  0
  4 24  1  0
  5 14  4  0
  6 16  2  0
  6 23  4  0
  6 25  3  0
  7 12  3  0
  7 15  2  0
  7 16  1  0
  7 19  4  0
  8  9  4  0
  8 11  2  0
  8 12  2  0
  8 13  3  0
  8 18  1  0
  9 11  4  0
  9 13  4  0
  9 24  4  0
 10 13  1  0
 10 17  4  0
 10 18  4  0
 10 25  3  0
 12 13  2  0
 12 15  2  0
 12 17  4  0
 12 25  1  0
 13 15  4  0
 13 20  3  0
 13 24  4  0
 14 18  1  0
 14 24  4  0
 15 16  3  0
 17 21  3  0
 18 25  1  0
 19 21  3  0
 19 24  4  0
 23 24  4  0
M  END
$$$$

 Created by Python create_sdf_string function

 29 32  0  0  0  0  0  0  0  0999 V2000
    9.5461   -7.0639   17.8815 C   0  0  0  0  0  0  0  0  0  0  0  0
   10.0276   -3.2659   16.0312 N   0  0  0  0  0  0  0  0  0  0  0  0
    9.6330   -5.7472   17.5392 C   0  0  0  0  0  0  0  0  0  0  0  0
    3.9431   -9.3945   15.8117 C   0  0  0  0  0  0  0  0  0  0  0  0
   10.6202   -4.7343   17.9136 N   0  0  0  0  0  0  0  0  0  0  0  0
    8.5790   -5.4375   16.7642 C   0  0  0  0  0  0  0  0  0  0  0  0
   10.9627   -4.9731   21.5405 C   0  0  0  0  0  0  0  0  0  0  0  0
   10.7453   -3.4199   23.4275 C   0  0  0  0  0  0  0  0  0  0  0  0
   10.7734   -4.1347   25.7326 N   0  0  0  0  0  0  0  0  0  0  0  0
    9.6831   -2.0536   25.1750 C   0  0  0  0  0  0  0  0  0  0  0  0
    5.1078   -8.0811   17.2864 C   0  0  0  0  0  0  0  0  0  0  0  0
   10.0660   -2.9913   26.0785 C   0  0  0  0  0  0  0  0  0  0  0  0
    6.1973   -8.8541   15.3377 N   0  0  0  0  0  0  0  0  0  0  0  0
   11.0176   -2.9985   19.6787 C   0  0  0  0  0  0  0  0  0  0  0  0
   10.9199   -3.7845   16.8501 C   0  0  0  0  0  0  0  0  0  0  0  0
    7.5600   -6.0915   16.4630 N   0  0  0  0  0  0  0  0  0  0  0  0
   10.9992   -2.7165   20.9741 C   0  0  0  0  0  0  0  0  0  0  0  0
   10.8964   -3.6766   21.9890 C   0  0  0  0  0  0  0  0  0  0  0  0
   11.1201   -4.3417   24.4003 C   0  0  0  0  0  0  0  0  0  0  0  0
    6.2237   -8.1297   16.5400 C   0  0  0  0  0  0  0  0  0  0  0  0
    3.9738   -8.7710   16.9353 C   0  0  0  0  0  0  0  0  0  0  0  0
   10.1188   -2.2616   23.8153 C   0  0  0  0  0  0  0  0  0  0  0  0
    9.6751   -2.7771   27.3578 F   0  0  0  0  0  0  0  0  0  0  0  0
    8.4659   -7.8221   17.6016 C   0  0  0  0  0  0  0  0  0  0  0  0
   12.1157   -3.2185   16.6929 N   0  0  0  0  0  0  0  0  0  0  0  0
   10.9049   -5.2646   20.1711 C   0  0  0  0  0  0  0  0  0  0  0  0
    7.3852   -7.3939   16.8656 C   0  0  0  0  0  0  0  0  0  0  0  0
   10.8759   -4.3196   19.2296 C   0  0  0  0  0  0  0  0  0  0  0  0
    5.0049   -9.4787   14.9748 C   0  0  0  0  0  0  0  0  0  0  0  0
  1  3  4  0
  1 24  4  0
  2 15  2  0
  3  5  1  0
  3  6  4  0
  4 21  4  0
  4 29  4  0
  5 15  1  0
  5 28  1  0
  6 16  4  0
  7 18  4  0
  7 26  4  0
  8 18  1  0
  8 19  4  0
  8 22  4  0
  9 12  4  0
  9 19  4  0
 10 12  4  0
 10 22  4  0
 11 20  4  0
 11 21  4  0
 12 23  1  0
 13 20  4  0
 13 29  4  0
 14 17  4  0
 14 28  4  0
 15 25  1  0
 16 27  4  0
 17 18  4  0
 20 27  1  0
 24 27  4  0
 26 28  4  0
M  END
$$$$

 Created by Python create_sdf_string function

 29 48  0  0  0  0  0  0  0  0999 V2000
    9.1538   -7.1474   18.3473 C   0  0  0  0  0  0  0  0  0  0  0  0
    9.7637   -3.6104   15.7969 S   0  0  0  0  0  0  0  0  0  0  0  0
    9.8902   -5.9823   17.2908 C   0  0  0  0  0  0  0  0  0  0  0  0
    4.5902   -9.6813   16.1796 C   0  0  0  0  0  0  0  0  0  0  0  0
   10.6108   -4.8412   18.0954 N   0  0  0  0  0  0  0  0  0  0  0  0
   11.1407   -5.0445   21.1712 F   0  0  0  0  0  0  0  0  0  0  0  0
   10.9866   -2.9905   23.7868 C   0  0  0  0  0  0  0  0  0  0  0  0
   10.1417   -1.9837   25.4978 C   0  0  0  0  0  0  0  0  0  0  0  0
    4.9728   -8.4162   17.3531 C   0  0  0  0  0  0  0  0  0  0  0  0
   10.1082   -3.0200   25.8938 C   0  0  0  0  0  0  0  0  0  0  0  0
    6.0922   -9.0410   15.0780 N   0  0  0  0  0  0  0  0  0  0  0  0
   11.0706   -2.8869   19.4230 C   0  0  0  0  0  0  0  0  0  0  0  0
    7.8115   -6.1013   16.5750 N   0  0  0  0  0  0  0  0  0  0  0  0
   10.6790   -2.6847   21.0056 C   0  0  0  0  0  0  0  0  0  0  0  0
   10.8341   -3.8068   21.8715 C   0  0  0  0  0  0  0  0  0  0  0  0
   11.2010   -4.3658   24.2499 C   0  0  0  0  0  0  0  0  0  0  0  0
    6.0901   -8.5689   16.6802 F   0  0  0  0  0  0  0  0  0  0  0  0
    4.0979   -8.7971   16.8786 C   0  0  0  0  0  0  0  0  0  0  0  0
    9.4427   -2.2209   24.3916 C   0  0  0  0  0  0  0  0  0  0  0  0
    9.5326   -2.6576   27.1687 F   0  0  0  0  0  0  0  0  0  0  0  0
    8.4674   -7.4853   17.4229 C   0  0  0  0  0  0  0  0  0  0  0  0
   11.4664   -3.1057   15.9386 N   0  0  0  0  0  0  0  0  0  0  0  0
   11.1047   -5.2455   20.4858 C   0  0  0  0  0  0  0  0  0  0  0  0
   10.4494   -3.5987   18.7863 C   0  0  0  0  0  0  0  0  0  0  0  0
    5.4120   -9.1992   14.7684 C   0  0  0  0  0  0  0  0  0  0  0  0
    8.7030   -5.8928   16.4301 He  0  0  0  0  0  0  0  0  0  0  0  0
   10.8134   -4.8495   26.0138 He  0  0  0  0  0  0  0  0  0  0  0  0
   11.1019   -4.4763   17.2191 He  0  0  0  0  0  0  0  0  0  0  0  0
    7.4378   -7.2965   16.7620 He  0  0  0  0  0  0  0  0  0  0  0  0
  1  3  4  0
  1 11  2  0
  1 16  2  0
  1 21  4  0
  1 24  1  0
  2  9  2  0
  4 17  1  0
  4 18  4  0
  4 21  2  0
  4 22  2  0
  4 25  4  0
  5 18  2  0
  5 24  1  0
  6 12  3  0
  6 14  1  0
  6 15  4  0
  6 18  3  0
  6 23  4  0
  7 16  4  0
  7 19  4  0
  7 25  1  0
  8 10  4  0
  8 19  2  0
  9 17  4  0
  9 18  4  0
  9 25  4  0
 10 20  1  0
 10 24  3  0
 11 17  3  0
 11 25  4  0
 12 14  4  0
 12 24  3  0
 13 15  4  0
 13 17  1  0
 14 15  4  0
 14 18  4  0
 14 19  2  0
 14 20  2  0
 14 25  4  0
 15 17  4  0
 15 19  4  0
 16 18  4  0
 19 20  3  0
 19 24  2  0
 20 25  4  0
 21 24  1  0
 23 24  4  0
 23 25  2  0
M  END
$$$$

 Created by Python create_sdf_string function

 29 33  0  0  0  0  0  0  0  0999 V2000
    9.5147   -7.0077   18.0933 C   0  0  0  0  0  0  0  0  0  0  0  0
    9.4769   -4.0571   15.8755 S   0  0  0  0  0  0  0  0  0  0  0  0
    9.5526   -5.7724   17.5167 C   0  0  0  0  0  0  0  0  0  0  0  0
    4.0182   -9.4692   15.8486 C   0  0  0  0  0  0  0  0  0  0  0  0
   10.4429   -4.7919   17.9194 N   0  0  0  0  0  0  0  0  0  0  0  0
    8.7362   -5.4623   16.5233 C   0  0  0  0  0  0  0  0  0  0  0  0
   10.9041   -4.9803   21.5692 C   0  0  0  0  0  0  0  0  0  0  0  0
   10.6816   -3.3987   23.4252 C   0  0  0  0  0  0  0  0  0  0  0  0
   10.7176   -4.1603   25.7466 C   0  0  0  0  0  0  0  0  0  0  0  0
    9.6706   -2.0550   25.2068 C   0  0  0  0  0  0  0  0  0  0  0  0
    5.2359   -8.2561   17.4060 C   0  0  0  0  0  0  0  0  0  0  0  0
   10.0376   -3.0446   26.1046 C   0  0  0  0  0  0  0  0  0  0  0  0
    6.2824   -8.9041   15.3285 N   0  0  0  0  0  0  0  0  0  0  0  0
   10.9035   -3.0436   19.6197 C   0  0  0  0  0  0  0  0  0  0  0  0
   10.6884   -3.9877   16.8578 C   0  0  0  0  0  0  0  0  0  0  0  0
    7.6739   -6.2612   16.2052 C   0  0  0  0  0  0  0  0  0  0  0  0
   10.9265   -2.7566   20.9260 C   0  0  0  0  0  0  0  0  0  0  0  0
   10.8182   -3.6877   21.9933 C   0  0  0  0  0  0  0  0  0  0  0  0
   10.9895   -4.3710   24.4030 C   0  0  0  0  0  0  0  0  0  0  0  0
    6.3313   -8.1825   16.5590 C   0  0  0  0  0  0  0  0  0  0  0  0
    4.1171   -8.9421   17.0408 C   0  0  0  0  0  0  0  0  0  0  0  0
   10.1063   -2.2084   23.8361 C   0  0  0  0  0  0  0  0  0  0  0  0
    9.7227   -2.8993   27.4003 F   0  0  0  0  0  0  0  0  0  0  0  0
    8.3799   -7.8531   17.8255 C   0  0  0  0  0  0  0  0  0  0  0  0
   11.7642   -3.3543   16.5656 N   0  0  0  0  0  0  0  0  0  0  0  0
   10.9075   -5.2985   20.2216 C   0  0  0  0  0  0  0  0  0  0  0  0
    7.4493   -7.4451   16.8619 C   0  0  0  0  0  0  0  0  0  0  0  0
   10.7914   -4.3350   19.2671 C   0  0  0  0  0  0  0  0  0  0  0  0
    5.1358   -9.5834   15.0547 C   0  0  0  0  0  0  0  0  0  0  0  0
  1  3  4  0
  1 24  4  0
  2  6  1  0
  2 15  2  0
  3  5  1  0
  3  6  4  0
  4 21  4  0
  4 29  4  0
  5 15  1  0
  5 28  1  0
  6 16  4  0
  7 18  4  0
  7 26  4  0
  8 18  1  0
  8 19  4  0
  8 22  4  0
  9 12  4  0
  9 19  4  0
 10 12  4  0
 10 22  4  0
 11 20  4  0
 11 21  4  0
 12 23  1  0
 13 20  4  0
 13 29  4  0
 14 17  4  0
 14 28  4  0
 15 25  1  0
 16 27  4  0
 17 18  4  0
 20 27  1  0
 24 27  4  0
 26 28  4  0
M  END
$$$$

 Created by Python create_sdf_string function

 29 60  0  0  0  0  0  0  0  0999 V2000
    9.6283   -7.1769   18.0049 C   0  0  0  0  0  0  0  0  0  0  0  0
    9.0779   -3.8097   15.9793 S   0  0  0  0  0  0  0  0  0  0  0  0
    9.5663   -6.0165   17.3150 C   0  0  0  0  0  0  0  0  0  0  0  0
    4.0453   -8.9367   15.8352 C   0  0  0  0  0  0  0  0  0  0  0  0
   10.6663   -4.8133   18.0060 N   0  0  0  0  0  0  0  0  0  0  0  0
    9.6083   -5.6977   16.2142 C   0  0  0  0  0  0  0  0  0  0  0  0
   10.6671   -5.0620   21.3676 C   0  0  0  0  0  0  0  0  0  0  0  0
   10.7026   -3.5554   22.9973 C   0  0  0  0  0  0  0  0  0  0  0  0
   10.2599   -3.8986   25.8096 C   0  0  0  0  0  0  0  0  0  0  0  0
    5.4197   -8.1469   17.2026 C   0  0  0  0  0  0  0  0  0  0  0  0
   10.1383   -2.8949   26.2002 N   0  0  0  0  0  0  0  0  0  0  0  0
    6.8219   -8.8496   15.5376 N   0  0  0  0  0  0  0  0  0  0  0  0
   11.0388   -2.7448   19.6415 Cl  0  0  0  0  0  0  0  0  0  0  0  0
   11.0660   -3.8322   17.2423 C   0  0  0  0  0  0  0  0  0  0  0  0
    7.6391   -6.2902   16.1488 C   0  0  0  0  0  0  0  0  0  0  0  0
   10.9336   -2.4648   20.6187 C   0  0  0  0  0  0  0  0  0  0  0  0
   10.5849   -3.4006   21.9937 C   0  0  0  0  0  0  0  0  0  0  0  0
   10.7235   -4.3504   24.5491 C   0  0  0  0  0  0  0  0  0  0  0  0
    6.8597   -8.6584   16.5657 C   0  0  0  0  0  0  0  0  0  0  0  0
    4.4318   -8.1625   16.9467 C   0  0  0  0  0  0  0  0  0  0  0  0
    9.9912   -1.8654   23.5760 O   0  0  0  0  0  0  0  0  0  0  0  0
    9.6479   -2.9719   27.3538 F   0  0  0  0  0  0  0  0  0  0  0  0
    8.8542   -7.7634   17.6850 C   0  0  0  0  0  0  0  0  0  0  0  0
   10.9948   -5.3277   20.2959 P   0  0  0  0  0  0  0  0  0  0  0  0
    7.6801   -7.5184   16.6617 C   0  0  0  0  0  0  0  0  0  0  0  0
   10.9490   -4.4965   19.6170 C   0  0  0  0  0  0  0  0  0  0  0  0
    5.1051   -9.9313   15.4529 C   0  0  0  0  0  0  0  0  0  0  0  0
    9.6784   -1.7943   25.2162 He  0  0  0  0  0  0  0  0  0  0  0  0
   11.6617   -3.4373   16.1549 He  0  0  0  0  0  0  0  0  0  0  0  0
  1 12  2  0
  1 16  4  0
  2  6  1  0
  2 14  2  0
  2 17  2  0
  2 20  1  0
  3  5  1  0
  3  6  4  0
  3  7  3  0
  3  9  3  0
  4 12  3  0
  4 13  3  0
  4 20  4  0
  4 27  1  0
  5  8  3  0
  5 12  4  0
  5 14  1  0
  5 20  2  0
  5 23  4  0
  5 26  1  0
  6 12  2  0
  6 15  4  0
  7  9  2  0
  7 12  1  0
  7 17  2  0
  7 23  2  0
  7 24  4  0
  8 15  4  0
  8 17  1  0
  8 18  2  0
  8 20  3  0
  8 21  4  0
  9 11  4  0
  9 12  1  0
  9 18  4  0
  9 19  3  0
  9 21  2  0
  9 25  4  0
  9 26  3  0
 10 18  2  0
 10 19  4  0
 10 20  4  0
 10 26  2  0
 11 22  1  0
 12 19  4  0
 12 22  1  0
 12 27  4  0
 13 18  2  0
 13 26  4  0
 14 17  1  0
 14 22  3  0
 15 16  1  0
 15 25  4  0
 16 17  4  0
 19 25  1  0
 19 27  3  0
 21 24  1  0
 23 25  4  0
 24 26  4  0
 24 27  3  0
M  END
$$$$

 Created by Python create_sdf_string function

 29 33  0  0  0  0  0  0  0  0999 V2000
    9.7489   -7.1022   18.0799 C   0  0  0  0  0  0  0  0  0  0  0  0
    9.3790   -4.0905   15.8777 S   0  0  0  0  0  0  0  0  0  0  0  0
    9.8113   -5.8047   17.5672 C   0  0  0  0  0  0  0  0  0  0  0  0
    4.1192   -9.2053   15.9631 C   0  0  0  0  0  0  0  0  0  0  0  0
   10.6663   -4.7446   17.9642 N   0  0  0  0  0  0  0  0  0  0  0  0
    8.9941   -5.4802   16.5204 C   0  0  0  0  0  0  0  0  0  0  0  0
   10.8042   -4.9765   21.5483 C   0  0  0  0  0  0  0  0  0  0  0  0
   10.5487   -3.3626   23.3849 C   0  0  0  0  0  0  0  0  0  0  0  0
   10.4691   -4.0799   25.7224 C   0  0  0  0  0  0  0  0  0  0  0  0
    9.7031   -1.8935   25.0786 C   0  0  0  0  0  0  0  0  0  0  0  0
    5.4470   -7.8552   17.2699 C   0  0  0  0  0  0  0  0  0  0  0  0
    9.9099   -2.8732   26.0288 C   0  0  0  0  0  0  0  0  0  0  0  0
    6.4566   -9.1686   15.5695 N   0  0  0  0  0  0  0  0  0  0  0  0
   11.0167   -3.0614   19.6537 C   0  0  0  0  0  0  0  0  0  0  0  0
   10.7519   -3.8551   16.9161 C   0  0  0  0  0  0  0  0  0  0  0  0
    8.0327   -6.3121   16.1100 C   0  0  0  0  0  0  0  0  0  0  0  0
   10.9848   -2.7298   20.9932 C   0  0  0  0  0  0  0  0  0  0  0  0
   10.7664   -3.6537   21.9610 C   0  0  0  0  0  0  0  0  0  0  0  0
   10.7911   -4.3279   24.3679 C   0  0  0  0  0  0  0  0  0  0  0  0
    6.6040   -8.2101   16.5316 C   0  0  0  0  0  0  0  0  0  0  0  0
    4.2450   -8.3696   16.9721 C   0  0  0  0  0  0  0  0  0  0  0  0
   10.0409   -2.1158   23.7545 C   0  0  0  0  0  0  0  0  0  0  0  0
    9.5803   -2.6551   27.2723 F   0  0  0  0  0  0  0  0  0  0  0  0
    8.7287   -7.9328   17.6917 C   0  0  0  0  0  0  0  0  0  0  0  0
   11.7935   -3.3828   16.2939 N   0  0  0  0  0  0  0  0  0  0  0  0
   10.8241   -5.3219   20.2555 C   0  0  0  0  0  0  0  0  0  0  0  0
    7.7631   -7.5298   16.7382 C   0  0  0  0  0  0  0  0  0  0  0  0
   10.8592   -4.3685   19.2470 C   0  0  0  0  0  0  0  0  0  0  0  0
    5.2294   -9.6100   15.2395 C   0  0  0  0  0  0  0  0  0  0  0  0
  1  3  4  0
  1 24  4  0
  2  6  1  0
  2 15  2  0
  3  5  1  0
  3  6  4  0
  4 21  4  0
  4 29  4  0
  5 15  1  0
  5 28  1  0
  6 16  4  0
  7 18  4  0
  7 26  4  0
  8 18  1  0
  8 19  4  0
  8 22  4  0
  9 12  4  0
  9 19  4  0
 10 12  4  0
 10 22  4  0
 11 20  4  0
 11 21  4  0
 12 23  1  0
 13 20  4  0
 13 29  4  0
 14 17  4  0
 14 28  4  0
 15 25  1  0
 16 27  4  0
 17 18  4  0
 20 27  1  0
 24 27  4  0
 26 28  4  0
M  END
$$$$

 Created by Python create_sdf_string function

 29 49  0  0  0  0  0  0  0  0999 V2000
    9.9539   -7.1620   18.2986 C   0  0  0  0  0  0  0  0  0  0  0  0
    9.3987   -4.3321   15.6239 O   0  0  0  0  0  0  0  0  0  0  0  0
    9.5347   -5.7679   17.4070 C   0  0  0  0  0  0  0  0  0  0  0  0
    3.9024   -9.0090   16.0353 C   0  0  0  0  0  0  0  0  0  0  0  0
   10.4623   -4.6338   18.0518 N   0  0  0  0  0  0  0  0  0  0  0  0
    9.1614   -5.4551   16.4499 C   0  0  0  0  0  0  0  0  0  0  0  0
   10.3037   -5.0911   21.2292 C   0  0  0  0  0  0  0  0  0  0  0  0
   10.8046   -3.2297   23.1183 C   0  0  0  0  0  0  0  0  0  0  0  0
   10.3995   -3.8081   25.6900 I   0  0  0  0  0  0  0  0  0  0  0  0
    9.8224   -2.2375   24.8176 C   0  0  0  0  0  0  0  0  0  0  0  0
    5.3966   -7.7921   17.1415 C   0  0  0  0  0  0  0  0  0  0  0  0
    6.5138   -9.0454   15.4386 N   0  0  0  0  0  0  0  0  0  0  0  0
   11.0448   -2.7717   19.7512 C   0  0  0  0  0  0  0  0  0  0  0  0
   10.2125   -4.0915   16.8824 O   0  0  0  0  0  0  0  0  0  0  0  0
   11.2833   -2.6076   20.1145 C   0  0  0  0  0  0  0  0  0  0  0  0
   10.9020   -3.4696   21.7183 C   0  0  0  0  0  0  0  0  0  0  0  0
   10.8636   -4.5052   24.4393 C   0  0  0  0  0  0  0  0  0  0  0  0
    6.7586   -8.0125   16.2867 C   0  0  0  0  0  0  0  0  0  0  0  0
    4.1066   -8.4945   17.5571 C   0  0  0  0  0  0  0  0  0  0  0  0
    9.6485   -2.1993   23.7984 C   0  0  0  0  0  0  0  0  0  0  0  0
    9.5380   -2.7243   27.5098 F   0  0  0  0  0  0  0  0  0  0  0  0
    9.2707   -8.3137   17.1756 C   0  0  0  0  0  0  0  0  0  0  0  0
   10.8401   -5.2972   20.0267 C   0  0  0  0  0  0  0  0  0  0  0  0
    7.7792   -7.4362   16.8188 C   0  0  0  0  0  0  0  0  0  0  0  0
   11.0461   -4.8341   19.2577 C   0  0  0  0  0  0  0  0  0  0  0  0
    4.5881   -9.7138   15.5379 C   0  0  0  0  0  0  0  0  0  0  0  0
    9.7918   -2.7305   26.3547 He  0  0  0  0  0  0  0  0  0  0  0  0
    7.8343   -6.3943   16.1260 He  0  0  0  0  0  0  0  0  0  0  0  0
   11.4446   -3.2607   16.0598 He  0  0  0  0  0  0  0  0  0  0  0  0
  1  3  4  0
  1  8  3  0
  1 15  4  0
  1 18  4  0
  1 22  4  0
  1 25  1  0
  2  6  4  0
  2 14  2  0
  2 15  4  0
  2 25  1  0
  2 26  2  0
  3  5  1  0
  3 15  4  0
  4 10  2  0
  4 18  1  0
  4 19  4  0
  4 26  4  0
  5 14  1  0
  5 25  1  0
  6  9  1  0
  6 12  1  0
  6 13  3  0
  6 25  3  0
  7 10  3  0
  7 11  3  0
  7 16  3  0
  7 18  4  0
  7 22  1  0
  7 23  4  0
  8 12  2  0
  8 16  1  0
  8 17  4  0
  8 18  2  0
  8 20  4  0
  9 17  4  0
 11 18  4  0
 11 19  4  0
 12 18  4  0
 12 21  3  0
 12 26  2  0
 13 15  4  0
 13 25  4  0
 15 26  2  0
 16 21  3  0
 18 20  4  0
 18 24  1  0
 20 25  1  0
 22 24  3  0
 23 25  4  0
M  END
$$$$

 Created by Python create_sdf_string function

 29 33  0  0  0  0  0  0  0  0999 V2000
    9.7564   -7.2094   17.9085 C   0  0  0  0  0  0  0  0  0  0  0  0
    9.3137   -4.2940   15.9035 N   0  0  0  0  0  0  0  0  0  0  0  0
    9.7309   -5.8823   17.4311 C   0  0  0  0  0  0  0  0  0  0  0  0
    3.9429   -9.1761   16.2225 C   0  0  0  0  0  0  0  0  0  0  0  0
   10.4409   -4.7642   17.8364 N   0  0  0  0  0  0  0  0  0  0  0  0
    8.9171   -5.5394   16.4140 C   0  0  0  0  0  0  0  0  0  0  0  0
   10.7753   -4.9754   21.4529 C   0  0  0  0  0  0  0  0  0  0  0  0
   10.5634   -3.3303   23.2522 C   0  0  0  0  0  0  0  0  0  0  0  0
   10.5618   -4.0167   25.6049 C   0  0  0  0  0  0  0  0  0  0  0  0
    9.5416   -1.9566   24.9681 C   0  0  0  0  0  0  0  0  0  0  0  0
    5.4690   -7.8362   17.3633 C   0  0  0  0  0  0  0  0  0  0  0  0
    9.8855   -2.8783   25.9441 C   0  0  0  0  0  0  0  0  0  0  0  0
    6.2220   -9.0983   15.5112 N   0  0  0  0  0  0  0  0  0  0  0  0
   11.0618   -3.0532   19.5724 C   0  0  0  0  0  0  0  0  0  0  0  0
   10.4222   -3.9216   16.6663 C   0  0  0  0  0  0  0  0  0  0  0  0
    7.9028   -6.3338   16.0221 C   0  0  0  0  0  0  0  0  0  0  0  0
   11.0686   -2.7224   20.8132 C   0  0  0  0  0  0  0  0  0  0  0  0
   10.7739   -3.6381   21.8431 C   0  0  0  0  0  0  0  0  0  0  0  0
   10.8938   -4.2616   24.2802 C   0  0  0  0  0  0  0  0  0  0  0  0
    6.5129   -8.1811   16.5205 C   0  0  0  0  0  0  0  0  0  0  0  0
    4.2041   -8.2999   17.1727 C   0  0  0  0  0  0  0  0  0  0  0  0
    9.9442   -2.1544   23.6229 C   0  0  0  0  0  0  0  0  0  0  0  0
    9.5695   -2.6573   27.2186 F   0  0  0  0  0  0  0  0  0  0  0  0
    8.7369   -8.0535   17.5000 C   0  0  0  0  0  0  0  0  0  0  0  0
   11.4842   -3.1505   16.2960 N   0  0  0  0  0  0  0  0  0  0  0  0
   10.7095   -5.3073   20.1502 C   0  0  0  0  0  0  0  0  0  0  0  0
    7.7009   -7.5663   16.6349 C   0  0  0  0  0  0  0  0  0  0  0  0
   10.7541   -4.3438   19.1749 C   0  0  0  0  0  0  0  0  0  0  0  0
    4.9446   -9.5495   15.3485 C   0  0  0  0  0  0  0  0  0  0  0  0
  1  3  4  0
  1 24  4  0
  2  6  1  0
  2 15  2  0
  3  5  1  0
  3  6  4  0
  4 21  4  0
  4 29  4  0
  5 15  1  0
  5 28  1  0
  6 16  4  0
  7 18  4  0
  7 26  4  0
  8 18  1  0
  8 19  4  0
  8 22  4  0
  9 12  4  0
  9 19  4  0
 10 12  4  0
 10 22  4  0
 11 20  4  0
 11 21  4  0
 12 23  1  0
 13 20  4  0
 13 29  4  0
 14 17  4  0
 14 28  4  0
 15 25  1  0
 16 27  4  0
 17 18  4  0
 20 27  1  0
 24 27  4  0
 26 28  4  0
M  END
$$$$

 Created by Python create_sdf_string function

 29 56  0  0  0  0  0  0  0  0999 V2000
    9.6639   -7.4974   18.1248 C   0  0  0  0  0  0  0  0  0  0  0  0
    9.2976   -3.9762   15.6706 N   0  0  0  0  0  0  0  0  0  0  0  0
    9.4399   -5.8970   17.9787 C   0  0  0  0  0  0  0  0  0  0  0  0
    4.2014   -9.0385   16.8656 C   0  0  0  0  0  0  0  0  0  0  0  0
   10.3218   -4.7120   17.1781 N   0  0  0  0  0  0  0  0  0  0  0  0
    8.6265   -5.7581   16.2881 C   0  0  0  0  0  0  0  0  0  0  0  0
   10.6246   -5.1188   21.0665 C   0  0  0  0  0  0  0  0  0  0  0  0
   10.8612   -3.2315   23.1239 C   0  0  0  0  0  0  0  0  0  0  0  0
   10.7387   -3.8353   24.6960 C   0  0  0  0  0  0  0  0  0  0  0  0
    9.9300   -1.7878   24.9332 C   0  0  0  0  0  0  0  0  0  0  0  0
    5.4175   -7.5668   17.5562 C   0  0  0  0  0  0  0  0  0  0  0  0
    9.6763   -2.9035   25.7898 C   0  0  0  0  0  0  0  0  0  0  0  0
    6.1442   -9.2032   15.2428 O   0  0  0  0  0  0  0  0  0  0  0  0
   10.7660   -2.9871   19.7052 C   0  0  0  0  0  0  0  0  0  0  0  0
   10.3197   -3.9135   16.8988 C   0  0  0  0  0  0  0  0  0  0  0  0
   10.7792   -3.8818   21.8924 C   0  0  0  0  0  0  0  0  0  0  0  0
   10.7247   -4.3792   24.5289 C   0  0  0  0  0  0  0  0  0  0  0  0
    6.9806   -8.2466   16.3627 C   0  0  0  0  0  0  0  0  0  0  0  0
    4.7124   -8.2656   17.2121 C   0  0  0  0  0  0  0  0  0  0  0  0
   10.2877   -2.3433   23.6974 C   0  0  0  0  0  0  0  0  0  0  0  0
    9.6476   -2.6882   27.3399 F   0  0  0  0  0  0  0  0  0  0  0  0
    8.9412   -7.9708   17.6861 C   0  0  0  0  0  0  0  0  0  0  0  0
   11.9717   -3.4392   16.3879 N   0  0  0  0  0  0  0  0  0  0  0  0
   10.8078   -5.1734   20.1449 C   0  0  0  0  0  0  0  0  0  0  0  0
    7.9643   -7.5401   16.6410 C   0  0  0  0  0  0  0  0  0  0  0  0
   10.4524   -4.1938   19.2060 C   0  0  0  0  0  0  0  0  0  0  0  0
    7.7790   -6.5358   15.6529 He  0  0  0  0  0  0  0  0  0  0  0  0
   10.4234   -2.8175   21.2011 He  0  0  0  0  0  0  0  0  0  0  0  0
    4.7861   -9.3596   15.6025 He  0  0  0  0  0  0  0  0  0  0  0  0
  1  3  4  0
  1 11  4  0
  1 22  4  0
  2  5  3  0
  2  6  1  0
  2 15  1  0
  2 16  1  0
  2 25  2  0
  3  5  1  0
  3  6  4  0
  3  7  3  0
  3 22  1  0
  3 26  4  0
  4 19  4  0
  4 22  3  0
  4 25  3  0
  5  9  2  0
  5 12  1  0
  5 15  1  0
  5 17  3  0
  5 26  1  0
  6 15  2  0
  6 17  4  0
  6 20  3  0
  6 26  4  0
  7 10  3  0
  7 11  3  0
  7 22  4  0
  7 24  4  0
  8 10  1  0
  8 16  1  0
  8 20  4  0
  9 12  4  0
  9 17  4  0
  9 18  4  0
  9 22  4  0
 10 12  4  0
 10 20  4  0
 10 24  3  0
 12 21  1  0
 12 24  1  0
 13 18  1  0
 13 25  4  0
 14 26  4  0
 15 23  1  0
 17 19  1  0
 17 22  3  0
 18 19  4  0
 18 23  2  0
 18 25  1  0
 19 21  3  0
 19 23  4  0
 20 24  1  0
 21 26  3  0
 22 25  4  0
 24 26  4  0
M  END
$$$$

 Created by Python create_sdf_string function

 29 33  0  0  0  0  0  0  0  0999 V2000
    9.6417   -7.1150   17.9798 C   0  0  0  0  0  0  0  0  0  0  0  0
    9.2933   -4.2482   15.7666 N   0  0  0  0  0  0  0  0  0  0  0  0
    9.6107   -5.8608   17.4378 C   0  0  0  0  0  0  0  0  0  0  0  0
    3.9957   -9.1431   16.5117 C   0  0  0  0  0  0  0  0  0  0  0  0
   10.2949   -4.7476   17.8559 N   0  0  0  0  0  0  0  0  0  0  0  0
    8.9168   -5.6027   16.3632 C   0  0  0  0  0  0  0  0  0  0  0  0
   10.8292   -5.0275   21.4474 C   0  0  0  0  0  0  0  0  0  0  0  0
   10.6027   -3.3895   23.2442 C   0  0  0  0  0  0  0  0  0  0  0  0
   10.5226   -4.0408   25.5795 C   0  0  0  0  0  0  0  0  0  0  0  0
    9.8103   -1.8418   24.8893 C   0  0  0  0  0  0  0  0  0  0  0  0
    5.5579   -7.8058   17.5564 C   0  0  0  0  0  0  0  0  0  0  0  0
    9.9782   -2.8288   25.8636 C   0  0  0  0  0  0  0  0  0  0  0  0
    6.0882   -9.0416   15.5569 C   0  0  0  0  0  0  0  0  0  0  0  0
   10.7055   -3.1066   19.5341 C   0  0  0  0  0  0  0  0  0  0  0  0
   10.4238   -3.8687   16.7114 C   0  0  0  0  0  0  0  0  0  0  0  0
    7.9511   -6.4121   15.9230 C   0  0  0  0  0  0  0  0  0  0  0  0
   10.8109   -2.7917   20.8037 C   0  0  0  0  0  0  0  0  0  0  0  0
   10.7224   -3.7378   21.8475 C   0  0  0  0  0  0  0  0  0  0  0  0
   10.8790   -4.3405   24.2494 C   0  0  0  0  0  0  0  0  0  0  0  0
    6.4852   -8.1474   16.5693 C   0  0  0  0  0  0  0  0  0  0  0  0
    4.3783   -8.2962   17.4278 C   0  0  0  0  0  0  0  0  0  0  0  0
   10.1403   -2.1660   23.5554 C   0  0  0  0  0  0  0  0  0  0  0  0
    9.5825   -2.5643   27.1227 F   0  0  0  0  0  0  0  0  0  0  0  0
    8.6951   -8.0291   17.5167 C   0  0  0  0  0  0  0  0  0  0  0  0
   11.5924   -3.2400   16.3787 N   0  0  0  0  0  0  0  0  0  0  0  0
   10.7884   -5.3410   20.1010 C   0  0  0  0  0  0  0  0  0  0  0  0
    7.7377   -7.5630   16.5908 C   0  0  0  0  0  0  0  0  0  0  0  0
   10.6157   -4.3612   19.1233 C   0  0  0  0  0  0  0  0  0  0  0  0
    4.8550   -9.5080   15.5400 C   0  0  0  0  0  0  0  0  0  0  0  0
  1  3  4  0
  1 24  4  0
  2  6  1  0
  2 15  1  0
  3  5  1  0
  3  6  4  0
  4 21  4  0
  4 29  4  0
  5 15  1  0
  5 28  1  0
  6 16  4  0
  7 18  4  0
  7 26  4  0
  8 18  1  0
  8 19  4  0
  8 22  4  0
  9 12  4  0
  9 19  4  0
 10 12  4  0
 10 22  4  0
 11 20  4  0
 11 21  4  0
 12 23  1  0
 13 20  4  0
 13 29  4  0
 14 17  4  0
 14 28  4  0
 15 25  1  0
 16 27  4  0
 17 18  4  0
 20 27  1  0
 24 27  4  0
 26 28  4  0
M  END
$$$$

 Created by Python create_sdf_string function

 29 47  0  0  0  0  0  0  0  0999 V2000
    9.2245   -7.3380   17.9321 C   0  0  0  0  0  0  0  0  0  0  0  0
    9.5846   -4.1605   15.9240 F   0  0  0  0  0  0  0  0  0  0  0  0
    9.4596   -6.1645   17.5171 C   0  0  0  0  0  0  0  0  0  0  0  0
    4.2902   -9.2690   16.2181 P   0  0  0  0  0  0  0  0  0  0  0  0
   10.2280   -5.3309   17.8533 N   0  0  0  0  0  0  0  0  0  0  0  0
    8.6996   -5.3380   16.3818 C   0  0  0  0  0  0  0  0  0  0  0  0
   11.2216   -5.0150   21.3306 C   0  0  0  0  0  0  0  0  0  0  0  0
   11.0283   -3.1925   23.3115 C   0  0  0  0  0  0  0  0  0  0  0  0
   10.2185   -3.8379   25.5443 C   0  0  0  0  0  0  0  0  0  0  0  0
    5.3017   -7.9200   17.3226 C   0  0  0  0  0  0  0  0  0  0  0  0
   10.0383   -3.1966   26.0174 C   0  0  0  0  0  0  0  0  0  0  0  0
    6.4068   -9.5274   15.5462 C   0  0  0  0  0  0  0  0  0  0  0  0
   10.9716   -3.2113   19.3652 C   0  0  0  0  0  0  0  0  0  0  0  0
   10.5301   -3.4619   16.7047 C   0  0  0  0  0  0  0  0  0  0  0  0
    8.2890   -6.3660   15.7989 C   0  0  0  0  0  0  0  0  0  0  0  0
   10.8426   -2.7498   20.8191 C   0  0  0  0  0  0  0  0  0  0  0  0
   10.6528   -3.7997   21.8319 C   0  0  0  0  0  0  0  0  0  0  0  0
   10.8432   -4.1124   24.2064 F   0  0  0  0  0  0  0  0  0  0  0  0
    6.6855   -7.8147   16.2926 Cl  0  0  0  0  0  0  0  0  0  0  0  0
    4.9370   -8.2182   17.4047 C   0  0  0  0  0  0  0  0  0  0  0  0
   10.1157   -2.2851   23.6709 C   0  0  0  0  0  0  0  0  0  0  0  0
    9.7579   -2.5597   27.2656 F   0  0  0  0  0  0  0  0  0  0  0  0
    8.8565   -8.2023   17.9051 C   0  0  0  0  0  0  0  0  0  0  0  0
   11.3531   -3.0617   16.0427 N   0  0  0  0  0  0  0  0  0  0  0  0
   10.6203   -5.4500   19.8731 C   0  0  0  0  0  0  0  0  0  0  0  0
    7.8659   -7.5627   16.4877 C   0  0  0  0  0  0  0  0  0  0  0  0
   10.6159   -4.3143   18.8161 C   0  0  0  0  0  0  0  0  0  0  0  0
    5.1380   -9.2014   15.6009 C   0  0  0  0  0  0  0  0  0  0  0  0
    9.8248   -1.2901   24.8028 He  0  0  0  0  0  0  0  0  0  0  0  0
  1  3  4  0
  1 14  2  0
  1 22  1  0
  1 23  4  0
  2  4  2  0
  2  6  1  0
  3  5  1  0
  3 22  1  0
  4 20  4  0
  4 28  4  0
  5  9  2  0
  5 27  1  0
  6  8  1  0
  6 15  4  0
  6 16  3  0
  7 17  4  0
  7 22  3  0
  7 25  4  0
  8 16  1  0
  8 17  1  0
  8 18  4  0
  8 21  4  0
  9 11  4  0
 10 19  4  0
 10 20  4  0
 10 23  2  0
 11 22  1  0
 11 26  1  0
 12 17  1  0
 12 28  4  0
 13 23  1  0
 14 16  4  0
 14 17  1  0
 14 18  3  0
 14 22  1  0
 14 24  1  0
 15 19  4  0
 15 26  4  0
 15 27  4  0
 16 27  3  0
 17 20  3  0
 17 24  4  0
 17 28  3  0
 19 20  3  0
 19 26  1  0
 21 27  3  0
 23 26  4  0
M  END
$$$$

 Created by Python create_sdf_string function

 29 33  0  0  0  0  0  0  0  0999 V2000
    9.5828   -7.1362   17.9947 C   0  0  0  0  0  0  0  0  0  0  0  0
    9.3767   -4.2719   15.8422 C   0  0  0  0  0  0  0  0  0  0  0  0
    9.6358   -5.8827   17.4576 C   0  0  0  0  0  0  0  0  0  0  0  0
    4.0514   -9.2604   16.3450 N   0  0  0  0  0  0  0  0  0  0  0  0
   10.3345   -4.7535   17.8601 N   0  0  0  0  0  0  0  0  0  0  0  0
    8.9578   -5.5684   16.3214 C   0  0  0  0  0  0  0  0  0  0  0  0
   10.8965   -5.0033   21.4631 C   0  0  0  0  0  0  0  0  0  0  0  0
   10.6344   -3.3598   23.1913 C   0  0  0  0  0  0  0  0  0  0  0  0
   10.5135   -3.9842   25.5683 C   0  0  0  0  0  0  0  0  0  0  0  0
    9.8049   -1.8003   24.8541 C   0  0  0  0  0  0  0  0  0  0  0  0
    5.5617   -7.8629   17.3534 C   0  0  0  0  0  0  0  0  0  0  0  0
    9.9852   -2.7546   25.8506 C   0  0  0  0  0  0  0  0  0  0  0  0
    6.2885   -9.1252   15.5000 C   0  0  0  0  0  0  0  0  0  0  0  0
   10.8934   -3.0800   19.5108 C   0  0  0  0  0  0  0  0  0  0  0  0
   10.4395   -3.9132   16.7221 C   0  0  0  0  0  0  0  0  0  0  0  0
    7.9648   -6.3685   15.9222 C   0  0  0  0  0  0  0  0  0  0  0  0
   10.9640   -2.7900   20.7550 C   0  0  0  0  0  0  0  0  0  0  0  0
   10.8273   -3.7077   21.8154 C   0  0  0  0  0  0  0  0  0  0  0  0
   10.7994   -4.2959   24.2174 C   0  0  0  0  0  0  0  0  0  0  0  0
    6.5854   -8.1478   16.4860 C   0  0  0  0  0  0  0  0  0  0  0  0
    4.3455   -8.3218   17.2127 C   0  0  0  0  0  0  0  0  0  0  0  0
   10.1894   -2.1088   23.5179 C   0  0  0  0  0  0  0  0  0  0  0  0
    9.6436   -2.5103   27.1150 F   0  0  0  0  0  0  0  0  0  0  0  0
    8.7151   -8.0379   17.5403 C   0  0  0  0  0  0  0  0  0  0  0  0
   11.4561   -3.1314   16.4465 N   0  0  0  0  0  0  0  0  0  0  0  0
   10.8584   -5.3599   20.1326 C   0  0  0  0  0  0  0  0  0  0  0  0
    7.7098   -7.5828   16.6367 C   0  0  0  0  0  0  0  0  0  0  0  0
   10.7145   -4.3827   19.1273 C   0  0  0  0  0  0  0  0  0  0  0  0
    5.0394   -9.6476   15.4382 C   0  0  0  0  0  0  0  0  0  0  0  0
  1  3  4  0
  1 24  4  0
  2  6  1  0
  2 15  1  0
  3  5  1  0
  3  6  4  0
  4 21  4  0
  4 29  4  0
  5 15  1  0
  5 28  1  0
  6 16  4  0
  7 18  4  0
  7 26  4  0
  8 18  1  0
  8 19  4  0
  8 22  4  0
  9 12  4  0
  9 19  4  0
 10 12  4  0
 10 22  4  0
 11 20  4  0
 11 21  4  0
 12 23  1  0
 13 20  4  0
 13 29  4  0
 14 17  4  0
 14 28  4  0
 15 25  1  0
 16 27  4  0
 17 18  4  0
 20 27  1  0
 24 27  4  0
 26 28  4  0
M  END
$$$$

 Created by Python create_sdf_string function

 29 53  0  0  0  0  0  0  0  0999 V2000
    9.3460   -7.1818   17.7130 C   0  0  0  0  0  0  0  0  0  0  0  0
    9.2688   -4.0837   15.6384 S   0  0  0  0  0  0  0  0  0  0  0  0
    9.1990   -6.0038   17.0266 C   0  0  0  0  0  0  0  0  0  0  0  0
    3.7276   -9.2778   16.2332 N   0  0  0  0  0  0  0  0  0  0  0  0
   10.3832   -4.4956   18.2368 N   0  0  0  0  0  0  0  0  0  0  0  0
    9.3470   -5.6750   16.1813 C   0  0  0  0  0  0  0  0  0  0  0  0
   10.6757   -4.8063   21.1812 C   0  0  0  0  0  0  0  0  0  0  0  0
   10.6403   -3.3017   23.0638 C   0  0  0  0  0  0  0  0  0  0  0  0
   10.6795   -4.0739   25.6330 C   0  0  0  0  0  0  0  0  0  0  0  0
    9.7207   -1.8628   24.6244 C   0  0  0  0  0  0  0  0  0  0  0  0
    5.2628   -7.7447   17.0613 C   0  0  0  0  0  0  0  0  0  0  0  0
   10.5042   -2.9035   26.2283 C   0  0  0  0  0  0  0  0  0  0  0  0
    6.2830   -9.0255   15.6056 C   0  0  0  0  0  0  0  0  0  0  0  0
   10.8437   -2.8560   19.6571 C   0  0  0  0  0  0  0  0  0  0  0  0
   10.4029   -3.7299   16.5204 C   0  0  0  0  0  0  0  0  0  0  0  0
    7.8155   -6.5681   15.7476 C   0  0  0  0  0  0  0  0  0  0  0  0
   11.1762   -2.6410   20.4155 C   0  0  0  0  0  0  0  0  0  0  0  0
   10.7821   -3.5736   21.9616 C   0  0  0  0  0  0  0  0  0  0  0  0
   10.7721   -4.3962   24.3135 C   0  0  0  0  0  0  0  0  0  0  0  0
    6.5296   -8.0307   16.7435 C   0  0  0  0  0  0  0  0  0  0  0  0
    4.3246   -8.6180   17.4415 C   0  0  0  0  0  0  0  0  0  0  0  0
   10.3151   -2.0524   23.7134 C   0  0  0  0  0  0  0  0  0  0  0  0
    9.8692   -2.3696   27.2099 F   0  0  0  0  0  0  0  0  0  0  0  0
    9.2885   -8.0315   17.6945 B   0  0  0  0  0  0  0  0  0  0  0  0
   11.8778   -3.3437   16.3882 N   0  0  0  0  0  0  0  0  0  0  0  0
   11.0322   -5.5085   20.3488 C   0  0  0  0  0  0  0  0  0  0  0  0
    7.6525   -7.5218   16.7022 C   0  0  0  0  0  0  0  0  0  0  0  0
   10.6384   -4.2903   19.3242 C   0  0  0  0  0  0  0  0  0  0  0  0
    5.4228   -9.6915   15.0217 P   0  0  0  0  0  0  0  0  0  0  0  0
  1  3  4  0
  1  6  2  0
  1 16  4  0
  1 24  4  0
  1 27  1  0
  2  6  1  0
  2 15  1  0
  2 18  3  0
  3  5  1  0
  3  6  2  0
  3  9  2  0
  3 13  2  0
  4 19  2  0
  4 21  4  0
  4 22  4  0
  4 29  3  0
  5 15  1  0
  6 18  1  0
  6 26  2  0
  7 18  4  0
  7 26  4  0
  8 10  3  0
  8 12  3  0
  8 14  3  0
  8 18  1  0
  8 19  4  0
  9 12  4  0
  9 16  1  0
  9 19  4  0
  9 23  2  0
 10 12  4  0
 10 22  4  0
 10 29  4  0
 12 16  1  0
 12 23  1  0
 13 20  4  0
 13 26  1  0
 13 29  3  0
 14 17  4  0
 14 28  4  0
 15 21  4  0
 15 25  1  0
 16 20  2  0
 17 18  4  0
 18 24  2  0
 18 29  3  0
 20 26  1  0
 20 27  1  0
 23 25  4  0
 24 27  4  0
 24 28  1  0
 26 27  4  0
 26 28  4  0
M  END
$$$$

 Created by Python create_sdf_string function

 29 33  0  0  0  0  0  0  0  0999 V2000
    9.6091   -7.0972   17.9491 C   0  0  0  0  0  0  0  0  0  0  0  0
    9.3447   -4.1421   15.6027 S   0  0  0  0  0  0  0  0  0  0  0  0
    9.6323   -5.8289   17.3997 C   0  0  0  0  0  0  0  0  0  0  0  0
    4.0068   -9.3007   16.1972 N   0  0  0  0  0  0  0  0  0  0  0  0
   10.3647   -4.7101   17.8298 N   0  0  0  0  0  0  0  0  0  0  0  0
    8.9150   -5.5482   16.2843 C   0  0  0  0  0  0  0  0  0  0  0  0
   10.8420   -4.9676   21.4184 C   0  0  0  0  0  0  0  0  0  0  0  0
   10.6576   -3.3448   23.2647 C   0  0  0  0  0  0  0  0  0  0  0  0
   10.6439   -4.0164   25.5830 C   0  0  0  0  0  0  0  0  0  0  0  0
    9.9312   -1.7990   24.9799 C   0  0  0  0  0  0  0  0  0  0  0  0
    5.4208   -7.8828   17.3603 C   0  0  0  0  0  0  0  0  0  0  0  0
   10.1598   -2.7671   25.9204 C   0  0  0  0  0  0  0  0  0  0  0  0
    6.2713   -9.0840   15.4842 C   0  0  0  0  0  0  0  0  0  0  0  0
   10.9417   -3.0086   19.5456 C   0  0  0  0  0  0  0  0  0  0  0  0
   10.4529   -3.7672   16.7592 C   0  0  0  0  0  0  0  0  0  0  0  0
    7.9691   -6.4178   15.8571 C   0  0  0  0  0  0  0  0  0  0  0  0
   11.0058   -2.7166   20.8514 C   0  0  0  0  0  0  0  0  0  0  0  0
   10.8393   -3.6555   21.8435 C   0  0  0  0  0  0  0  0  0  0  0  0
   10.9217   -4.2876   24.2425 C   0  0  0  0  0  0  0  0  0  0  0  0
    6.4952   -8.1596   16.4904 C   0  0  0  0  0  0  0  0  0  0  0  0
    4.1910   -8.4217   17.1382 C   0  0  0  0  0  0  0  0  0  0  0  0
   10.1700   -2.0883   23.6192 C   0  0  0  0  0  0  0  0  0  0  0  0
    9.9258   -2.5096   27.2124 F   0  0  0  0  0  0  0  0  0  0  0  0
    8.6128   -7.9478   17.5790 C   0  0  0  0  0  0  0  0  0  0  0  0
   11.6376   -3.2521   16.4230 N   0  0  0  0  0  0  0  0  0  0  0  0
   10.7362   -5.2852   20.1311 C   0  0  0  0  0  0  0  0  0  0  0  0
    7.6988   -7.5267   16.6269 C   0  0  0  0  0  0  0  0  0  0  0  0
   10.6950   -4.3054   19.1184 C   0  0  0  0  0  0  0  0  0  0  0  0
    5.0349   -9.6611   15.3306 C   0  0  0  0  0  0  0  0  0  0  0  0
  1  3  4  0
  1 24  4  0
  2  6  1  0
  2 15  1  0
  3  5  1  0
  3  6  4  0
  4 21  4  0
  4 29  4  0
  5 15  1  0
  5 28  1  0
  6 16  4  0
  7 18  4  0
  7 26  4  0
  8 18  1  0
  8 19  4  0
  8 22  4  0
  9 12  4  0
  9 19  4  0
 10 12  4  0
 10 22  4  0
 11 20  4  0
 11 21  4  0
 12 23  1  0
 13 20  4  0
 13 29  4  0
 14 17  4  0
 14 28  4  0
 15 25  1  0
 16 27  4  0
 17 18  4  0
 20 27  1  0
 24 27  4  0
 26 28  4  0
M  END
$$$$

 Created by Python create_sdf_string function

 29 44  0  0  0  0  0  0  0  0999 V2000
    9.6340   -7.0699   17.9612 C   0  0  0  0  0  0  0  0  0  0  0  0
    9.4447   -3.7569   15.5713 S   0  0  0  0  0  0  0  0  0  0  0  0
    9.4858   -5.9883   17.2969 O   0  0  0  0  0  0  0  0  0  0  0  0
    3.3680   -9.8312   16.4161 N   0  0  0  0  0  0  0  0  0  0  0  0
    9.2276   -5.4145   16.2836 C   0  0  0  0  0  0  0  0  0  0  0  0
   11.1033   -5.0250   21.3693 C   0  0  0  0  0  0  0  0  0  0  0  0
   10.4008   -3.5795   25.4301 C   0  0  0  0  0  0  0  0  0  0  0  0
   10.0105   -1.8377   25.0649 C   0  0  0  0  0  0  0  0  0  0  0  0
    5.2485   -7.9886   17.3897 C   0  0  0  0  0  0  0  0  0  0  0  0
   10.0866   -2.8005   25.9997 C   0  0  0  0  0  0  0  0  0  0  0  0
    6.0358   -9.4277   15.3829 C   0  0  0  0  0  0  0  0  0  0  0  0
   10.8401   -2.9168   19.5904 C   0  0  0  0  0  0  0  0  0  0  0  0
   10.0722   -3.9927   16.4298 F   0  0  0  0  0  0  0  0  0  0  0  0
    7.7079   -6.4330   15.8411 C   0  0  0  0  0  0  0  0  0  0  0  0
   10.9499   -3.5099   21.9070 C   0  0  0  0  0  0  0  0  0  0  0  0
   10.9842   -4.1234   24.3797 C   0  0  0  0  0  0  0  0  0  0  0  0
    6.2922   -8.2191   16.3984 C   0  0  0  0  0  0  0  0  0  0  0  0
    4.1517   -8.5249   17.0724 C   0  0  0  0  0  0  0  0  0  0  0  0
   10.2310   -2.0211   23.6057 C   0  0  0  0  0  0  0  0  0  0  0  0
    9.9660   -2.5334   27.0183 F   0  0  0  0  0  0  0  0  0  0  0  0
    8.6271   -8.5023   17.6142 C   0  0  0  0  0  0  0  0  0  0  0  0
   11.8380   -3.5479   16.2780 N   0  0  0  0  0  0  0  0  0  0  0  0
   10.7708   -5.0968   19.8811 C   0  0  0  0  0  0  0  0  0  0  0  0
    7.5528   -7.5275   16.6955 C   0  0  0  0  0  0  0  0  0  0  0  0
   10.3435   -4.1980   19.0611 C   0  0  0  0  0  0  0  0  0  0  0  0
    4.9031   -9.1692   15.3511 C   0  0  0  0  0  0  0  0  0  0  0  0
   10.4062   -4.9739   17.9097 He  0  0  0  0  0  0  0  0  0  0  0  0
   10.7503   -3.4421   23.4642 He  0  0  0  0  0  0  0  0  0  0  0  0
   11.2907   -2.5986   20.7932 He  0  0  0  0  0  0  0  0  0  0  0  0
  1 21  4  0
  2  5  1  0
  2 17  3  0
  2 24  3  0
  2 26  1  0
  3  8  3  0
  3 17  3  0
  4  6  4  0
  4 18  4  0
  4 21  2  0
  4 24  1  0
  4 26  4  0
  5 14  4  0
  5 15  4  0
  5 19  2  0
  6 10  3  0
  6 11  4  0
  6 15  4  0
  6 23  4  0
  6 25  2  0
  7 16  4  0
  7 23  1  0
  7 25  3  0
  8 10  4  0
  8 19  4  0
  8 22  4  0
  9 14  4  0
  9 18  4  0
 10 20  1  0
 10 21  3  0
 10 25  3  0
 11 17  4  0
 11 26  4  0
 12 22  1  0
 12 25  4  0
 13 22  1  0
 13 23  4  0
 14 23  3  0
 17 18  4  0
 17 24  1  0
 17 26  1  0
 20 22  4  0
 21 24  4  0
 23 25  4  0
M  END
$$$$

 Created by Python create_sdf_string function

 29 33  0  0  0  0  0  0  0  0999 V2000
    9.5635   -7.1505   17.9393 C   0  0  0  0  0  0  0  0  0  0  0  0
    9.2677   -4.2272   15.6752 S   0  0  0  0  0  0  0  0  0  0  0  0
    9.5626   -5.8699   17.4028 C   0  0  0  0  0  0  0  0  0  0  0  0
    3.7633   -9.3179   16.2226 N   0  0  0  0  0  0  0  0  0  0  0  0
   10.3163   -4.7331   17.8287 C   0  0  0  0  0  0  0  0  0  0  0  0
    8.8138   -5.5907   16.3434 C   0  0  0  0  0  0  0  0  0  0  0  0
   10.8802   -4.9395   21.4116 C   0  0  0  0  0  0  0  0  0  0  0  0
   10.7227   -3.3013   23.2195 C   0  0  0  0  0  0  0  0  0  0  0  0
   10.6217   -3.9368   25.5522 C   0  0  0  0  0  0  0  0  0  0  0  0
    9.9007   -1.7623   24.9006 C   0  0  0  0  0  0  0  0  0  0  0  0
    5.2972   -8.0046   17.4028 C   0  0  0  0  0  0  0  0  0  0  0  0
   10.1176   -2.7013   25.8599 C   0  0  0  0  0  0  0  0  0  0  0  0
    5.9976   -9.0858   15.4392 C   0  0  0  0  0  0  0  0  0  0  0  0
   10.9177   -3.0208   19.5042 C   0  0  0  0  0  0  0  0  0  0  0  0
   10.4194   -3.9169   16.6355 C   0  0  0  0  0  0  0  0  0  0  0  0
    7.7944   -6.4310   15.9733 C   0  0  0  0  0  0  0  0  0  0  0  0
   11.0328   -2.6904   20.7722 C   0  0  0  0  0  0  0  0  0  0  0  0
   10.9021   -3.6193   21.8238 C   0  0  0  0  0  0  0  0  0  0  0  0
   10.9169   -4.2667   24.2198 C   0  0  0  0  0  0  0  0  0  0  0  0
    6.3312   -8.2196   16.4845 C   0  0  0  0  0  0  0  0  0  0  0  0
    4.0534   -8.5516   17.2059 C   0  0  0  0  0  0  0  0  0  0  0  0
   10.2692   -2.0493   23.5581 C   0  0  0  0  0  0  0  0  0  0  0  0
    9.8139   -2.4226   27.1190 F   0  0  0  0  0  0  0  0  0  0  0  0
    8.5352   -8.0261   17.5549 C   0  0  0  0  0  0  0  0  0  0  0  0
   11.6316   -3.3569   16.3143 N   0  0  0  0  0  0  0  0  0  0  0  0
   10.7493   -5.2771   20.1286 C   0  0  0  0  0  0  0  0  0  0  0  0
    7.5385   -7.6092   16.6499 C   0  0  0  0  0  0  0  0  0  0  0  0
   10.6795   -4.3113   19.1098 C   0  0  0  0  0  0  0  0  0  0  0  0
    4.7466   -9.6385   15.3212 C   0  0  0  0  0  0  0  0  0  0  0  0
  1  3  4  0
  1 24  4  0
  2  6  1  0
  2 15  2  0
  3  5  1  0
  3  6  4  0
  4 21  4  0
  4 29  4  0
  5 15  1  0
  5 28  1  0
  6 16  4  0
  7 18  4  0
  7 26  4  0
  8 18  1  0
  8 19  4  0
  8 22  4  0
  9 12  4  0
  9 19  4  0
 10 12  4  0
 10 22  4  0
 11 20  4  0
 11 21  4  0
 12 23  1  0
 13 20  4  0
 13 29  4  0
 14 17  4  0
 14 28  4  0
 15 25  1  0
 16 27  4  0
 17 18  4  0
 20 27  1  0
 24 27  4  0
 26 28  4  0
M  END
$$$$

 Created by Python create_sdf_string function

 29 48  0  0  0  0  0  0  0  0999 V2000
    9.6142   -7.0461   18.0886 S   0  0  0  0  0  0  0  0  0  0  0  0
    9.4682   -4.1244   15.6327 S   0  0  0  0  0  0  0  0  0  0  0  0
    9.4475   -5.9779   17.3465 C   0  0  0  0  0  0  0  0  0  0  0  0
    3.6552   -9.3515   16.2301 N   0  0  0  0  0  0  0  0  0  0  0  0
   10.2965   -4.7908   18.0340 C   0  0  0  0  0  0  0  0  0  0  0  0
    8.8891   -5.9231   16.3994 C   0  0  0  0  0  0  0  0  0  0  0  0
   10.7052   -5.0848   21.3312 C   0  0  0  0  0  0  0  0  0  0  0  0
   10.9658   -3.2823   23.3211 C   0  0  0  0  0  0  0  0  0  0  0  0
   10.2467   -3.8024   25.5818 C   0  0  0  0  0  0  0  0  0  0  0  0
    5.3065   -8.4533   17.2384 C   0  0  0  0  0  0  0  0  0  0  0  0
    9.5980   -2.6019   25.8287 C   0  0  0  0  0  0  0  0  0  0  0  0
    5.6409   -8.4659   15.7915 C   0  0  0  0  0  0  0  0  0  0  0  0
   10.9571   -2.8800   19.2930 C   0  0  0  0  0  0  0  0  0  0  0  0
   10.3074   -3.5148   16.7615 N   0  0  0  0  0  0  0  0  0  0  0  0
    7.7799   -6.3426   16.0665 P   0  0  0  0  0  0  0  0  0  0  0  0
   11.2932   -2.6139   20.5707 C   0  0  0  0  0  0  0  0  0  0  0  0
   11.1967   -3.5628   21.8428 C   0  0  0  0  0  0  0  0  0  0  0  0
   10.9664   -4.2810   24.1978 C   0  0  0  0  0  0  0  0  0  0  0  0
    6.2850   -8.3889   16.5676 C   0  0  0  0  0  0  0  0  0  0  0  0
    3.8798   -8.5316   16.8207 C   0  0  0  0  0  0  0  0  0  0  0  0
   10.1271   -1.8321   23.8180 C   0  0  0  0  0  0  0  0  0  0  0  0
    9.7875   -2.3549   27.1108 F   0  0  0  0  0  0  0  0  0  0  0  0
   11.8434   -3.4740   16.2697 N   0  0  0  0  0  0  0  0  0  0  0  0
   10.8600   -5.3400   20.1164 C   0  0  0  0  0  0  0  0  0  0  0  0
    7.5238   -7.5579   16.7513 C   0  0  0  0  0  0  0  0  0  0  0  0
   10.5689   -4.5444   19.2045 C   0  0  0  0  0  0  0  0  0  0  0  0
    5.0535   -9.9089   15.3571 C   0  0  0  0  0  0  0  0  0  0  0  0
    9.8091   -1.8959   25.0772 He  0  0  0  0  0  0  0  0  0  0  0  0
    8.7147   -7.8151   17.6832 He  0  0  0  0  0  0  0  0  0  0  0  0
  1  8  1  0
  1 11  3  0
  1 21  2  0
  2 12  4  0
  2 14  2  0
  2 15  2  0
  3  5  1  0
  3  6  4  0
  3 14  1  0
  3 20  3  0
  4  8  2  0
  4 20  4  0
  4 27  4  0
  5  6  1  0
  5 13  4  0
  5 14  1  0
  5 27  3  0
  6  8  1  0
  6 15  4  0
  6 21  2  0
  7 14  3  0
  7 16  3  0
  7 17  4  0
  7 24  3  0
  8 17  1  0
  8 18  4  0
  8 21  4  0
  9 11  4  0
  9 18  4  0
  9 27  1  0
 10 20  4  0
 10 25  3  0
 12 15  2  0
 12 19  4  0
 12 24  1  0
 12 27  4  0
 13 16  4  0
 14 23  1  0
 15 18  4  0
 15 19  4  0
 15 25  4  0
 16 17  1  0
 16 21  3  0
 16 25  4  0
 18 21  2  0
 18 23  1  0
 19 25  1  0
 23 27  1  0
M  END
$$$$

 Created by Python create_sdf_string function

 29 33  0  0  0  0  0  0  0  0999 V2000
    9.5011   -7.1544   18.1091 C   0  0  0  0  0  0  0  0  0  0  0  0
    9.3361   -4.2625   15.7566 N   0  0  0  0  0  0  0  0  0  0  0  0
    9.5487   -5.8937   17.5183 C   0  0  0  0  0  0  0  0  0  0  0  0
    3.8046   -9.3576   16.1221 N   0  0  0  0  0  0  0  0  0  0  0  0
   10.3595   -4.7836   17.8766 C   0  0  0  0  0  0  0  0  0  0  0  0
    8.8162   -5.6160   16.4246 C   0  0  0  0  0  0  0  0  0  0  0  0
   10.8929   -4.9427   21.4641 C   0  0  0  0  0  0  0  0  0  0  0  0
   10.6736   -3.2609   23.2184 C   0  0  0  0  0  0  0  0  0  0  0  0
   10.4126   -3.9007   25.5676 C   0  0  0  0  0  0  0  0  0  0  0  0
    9.7941   -1.7039   24.8488 C   0  0  0  0  0  0  0  0  0  0  0  0
    5.2098   -8.0851   17.4313 C   0  0  0  0  0  0  0  0  0  0  0  0
    9.9135   -2.6537   25.8359 C   0  0  0  0  0  0  0  0  0  0  0  0
    6.0353   -8.9626   15.4748 C   0  0  0  0  0  0  0  0  0  0  0  0
   11.0270   -3.0186   19.5112 C   0  0  0  0  0  0  0  0  0  0  0  0
   10.4714   -3.9586   16.7401 C   0  0  0  0  0  0  0  0  0  0  0  0
    7.8090   -6.4188   16.0269 C   0  0  0  0  0  0  0  0  0  0  0  0
   11.1295   -2.6724   20.7795 C   0  0  0  0  0  0  0  0  0  0  0  0
   10.9117   -3.6072   21.8241 C   0  0  0  0  0  0  0  0  0  0  0  0
   10.8076   -4.2085   24.2495 C   0  0  0  0  0  0  0  0  0  0  0  0
    6.2843   -8.1824   16.5767 C   0  0  0  0  0  0  0  0  0  0  0  0
    4.0201   -8.6995   17.2077 C   0  0  0  0  0  0  0  0  0  0  0  0
   10.2259   -2.0102   23.5499 C   0  0  0  0  0  0  0  0  0  0  0  0
    9.5289   -2.3767   27.0725 F   0  0  0  0  0  0  0  0  0  0  0  0
    8.4235   -7.9630   17.7369 C   0  0  0  0  0  0  0  0  0  0  0  0
   11.5913   -3.2709   16.4075 N   0  0  0  0  0  0  0  0  0  0  0  0
   10.7208   -5.2955   20.2201 C   0  0  0  0  0  0  0  0  0  0  0  0
    7.5002   -7.5359   16.7762 C   0  0  0  0  0  0  0  0  0  0  0  0
   10.7251   -4.3615   19.1889 C   0  0  0  0  0  0  0  0  0  0  0  0
    4.7977   -9.5028   15.2377 C   0  0  0  0  0  0  0  0  0  0  0  0
  1  3  4  0
  1 24  4  0
  2  6  1  0
  2 15  2  0
  3  5  1  0
  3  6  4  0
  4 21  4  0
  4 29  4  0
  5 15  1  0
  5 28  1  0
  6 16  4  0
  7 18  4  0
  7 26  4  0
  8 18  1  0
  8 19  4  0
  8 22  4  0
  9 12  4  0
  9 19  4  0
 10 12  4  0
 10 22  4  0
 11 20  4  0
 11 21  4  0
 12 23  1  0
 13 20  4  0
 13 29  4  0
 14 17  4  0
 14 28  4  0
 15 25  1  0
 16 27  4  0
 17 18  4  0
 20 27  1  0
 24 27  4  0
 26 28  4  0
M  END
$$$$

 Created by Python create_sdf_string function

 29 53  0  0  0  0  0  0  0  0999 V2000
    9.4471   -7.3390   18.1751 C   0  0  0  0  0  0  0  0  0  0  0  0
    9.1919   -4.0291   16.2292 N   0  0  0  0  0  0  0  0  0  0  0  0
    9.5822   -5.6953   17.5992 C   0  0  0  0  0  0  0  0  0  0  0  0
    3.9448   -9.2344   16.2578 N   0  0  0  0  0  0  0  0  0  0  0  0
   10.5641   -4.8682   18.2818 C   0  0  0  0  0  0  0  0  0  0  0  0
    9.0752   -5.5203   16.0035 C   0  0  0  0  0  0  0  0  0  0  0  0
   10.8024   -4.6476   21.4807 C   0  0  0  0  0  0  0  0  0  0  0  0
   10.3047   -3.4738   23.1031 C   0  0  0  0  0  0  0  0  0  0  0  0
    9.8685   -1.5719   24.6058 C   0  0  0  0  0  0  0  0  0  0  0  0
    5.2188   -8.4870   17.3995 C   0  0  0  0  0  0  0  0  0  0  0  0
    9.8561   -2.7860   25.6949 C   0  0  0  0  0  0  0  0  0  0  0  0
    5.9502   -8.8172   15.7821 C   0  0  0  0  0  0  0  0  0  0  0  0
   11.0111   -3.1908   19.2041 C   0  0  0  0  0  0  0  0  0  0  0  0
   10.5700   -3.7009   16.8338 C   0  0  0  0  0  0  0  0  0  0  0  0
    7.6499   -6.3565   15.7263 C   0  0  0  0  0  0  0  0  0  0  0  0
   11.2380   -2.7182   21.0218 C   0  0  0  0  0  0  0  0  0  0  0  0
   10.9207   -3.5992   21.8904 C   0  0  0  0  0  0  0  0  0  0  0  0
   10.8241   -4.1125   24.2931 C   0  0  0  0  0  0  0  0  0  0  0  0
    6.2208   -8.3378   16.5050 C   0  0  0  0  0  0  0  0  0  0  0  0
    3.7303   -8.8773   17.2849 C   0  0  0  0  0  0  0  0  0  0  0  0
   10.0944   -1.9526   23.6468 C   0  0  0  0  0  0  0  0  0  0  0  0
    9.5518   -2.1804   27.1497 F   0  0  0  0  0  0  0  0  0  0  0  0
    8.8256   -8.2190   17.3567 C   0  0  0  0  0  0  0  0  0  0  0  0
   11.1825   -3.5500   16.3741 N   0  0  0  0  0  0  0  0  0  0  0  0
   10.6951   -5.3655   20.2785 C   0  0  0  0  0  0  0  0  0  0  0  0
    7.4063   -7.5483   16.7273 C   0  0  0  0  0  0  0  0  0  0  0  0
   10.6225   -4.1890   19.1298 C   0  0  0  0  0  0  0  0  0  0  0  0
    5.0630   -9.4699   15.5425 C   0  0  0  0  0  0  0  0  0  0  0  0
   10.6826   -3.6073   25.9299 He  0  0  0  0  0  0  0  0  0  0  0  0
  1 12  1  0
  2  6  1  0
  2 14  2  0
  3  5  1  0
  3  6  4  0
  3 22  1  0
  3 23  4  0
  3 25  3  0
  4 20  4  0
  4 28  4  0
  5 13  4  0
  5 14  1  0
  5 27  1  0
  6 15  4  0
  6 21  1  0
  6 23  1  0
  7 17  4  0
  7 25  4  0
  8 16  2  0
  8 17  1  0
  8 18  4  0
  8 21  4  0
  8 26  4  0
  9 11  4  0
  9 20  3  0
  9 21  2  0
 10 19  4  0
 10 20  4  0
 10 26  1  0
 11 22  1  0
 12 19  4  0
 12 28  4  0
 13 16  4  0
 13 25  2  0
 13 27  4  0
 14 20  3  0
 14 24  1  0
 15 18  1  0
 15 24  1  0
 15 26  4  0
 16 17  4  0
 18 19  3  0
 18 23  4  0
 18 24  1  0
 19 22  2  0
 19 26  1  0
 20 25  1  0
 21 23  4  0
 21 26  4  0
 23 26  4  0
 24 28  1  0
 25 27  4  0
 26 28  4  0
M  END
$$$$

 Created by Python create_sdf_string function

 29 33  0  0  0  0  0  0  0  0999 V2000
    9.5705   -7.1994   17.9583 C   0  0  0  0  0  0  0  0  0  0  0  0
    9.2456   -4.3343   15.9410 N   0  0  0  0  0  0  0  0  0  0  0  0
    9.5621   -5.9134   17.5049 C   0  0  0  0  0  0  0  0  0  0  0  0
    3.8306   -9.3903   16.2179 N   0  0  0  0  0  0  0  0  0  0  0  0
   10.3514   -4.8230   17.9277 C   0  0  0  0  0  0  0  0  0  0  0  0
    8.7651   -5.5453   16.4373 C   0  0  0  0  0  0  0  0  0  0  0  0
   10.7577   -4.9652   21.5257 C   0  0  0  0  0  0  0  0  0  0  0  0
   10.6216   -3.2173   23.2399 C   0  0  0  0  0  0  0  0  0  0  0  0
   10.5057   -3.7474   25.6155 C   0  0  0  0  0  0  0  0  0  0  0  0
    9.6737   -1.6358   24.8398 C   0  0  0  0  0  0  0  0  0  0  0  0
    5.3226   -8.1927   17.5078 C   0  0  0  0  0  0  0  0  0  0  0  0
    9.9481   -2.5130   25.8492 C   0  0  0  0  0  0  0  0  0  0  0  0
    6.0300   -8.9860   15.4234 C   0  0  0  0  0  0  0  0  0  0  0  0
   11.0229   -3.0943   19.5768 C   0  0  0  0  0  0  0  0  0  0  0  0
   10.3483   -3.9978   16.7737 C   0  0  0  0  0  0  0  0  0  0  0  0
    7.7412   -6.3794   16.0188 C   0  0  0  0  0  0  0  0  0  0  0  0
   11.0949   -2.7439   20.8276 C   0  0  0  0  0  0  0  0  0  0  0  0
   10.8455   -3.6162   21.8721 C   0  0  0  0  0  0  0  0  0  0  0  0
   10.8533   -4.0981   24.2949 C   0  0  0  0  0  0  0  0  0  0  0  0
    6.3220   -8.2363   16.5479 C   0  0  0  0  0  0  0  0  0  0  0  0
    4.0980   -8.7827   17.3307 C   0  0  0  0  0  0  0  0  0  0  0  0
   10.0649   -1.9834   23.4907 C   0  0  0  0  0  0  0  0  0  0  0  0
    9.6031   -2.1787   27.0932 F   0  0  0  0  0  0  0  0  0  0  0  0
    8.5225   -8.0199   17.5994 C   0  0  0  0  0  0  0  0  0  0  0  0
   11.3702   -3.1482   16.4089 N   0  0  0  0  0  0  0  0  0  0  0  0
   10.6901   -5.3433   20.2474 C   0  0  0  0  0  0  0  0  0  0  0  0
    7.5098   -7.5635   16.6990 C   0  0  0  0  0  0  0  0  0  0  0  0
   10.7080   -4.4031   19.2171 C   0  0  0  0  0  0  0  0  0  0  0  0
    4.7637   -9.5149   15.2645 C   0  0  0  0  0  0  0  0  0  0  0  0
  1  3  4  0
  1 24  4  0
  2  6  1  0
  2 15  2  0
  3  5  1  0
  3  6  4  0
  4 21  4  0
  4 29  4  0
  5 15  1  0
  5 28  1  0
  6 16  4  0
  7 18  4  0
  7 26  4  0
  8 18  1  0
  8 19  4  0
  8 22  4  0
  9 12  4  0
  9 19  4  0
 10 12  4  0
 10 22  4  0
 11 20  4  0
 11 21  4  0
 12 23  1  0
 13 20  4  0
 13 29  4  0
 14 17  4  0
 14 28  4  0
 15 25  1  0
 16 27  4  0
 17 18  4  0
 20 27  1  0
 24 27  4  0
 26 28  4  0
M  END
$$$$

 Created by Python create_sdf_string function

 29 47  0  0  0  0  0  0  0  0999 V2000
    9.2177   -4.3126   16.0021 N   0  0  0  0  0  0  0  0  0  0  0  0
    9.5708   -5.6580   17.2291 C   0  0  0  0  0  0  0  0  0  0  0  0
    3.8916   -9.5164   16.0999 N   0  0  0  0  0  0  0  0  0  0  0  0
   10.0977   -4.7214   17.9425 C   0  0  0  0  0  0  0  0  0  0  0  0
    8.9808   -5.7318   16.5965 C   0  0  0  0  0  0  0  0  0  0  0  0
   10.8241   -5.0103   21.2972 I   0  0  0  0  0  0  0  0  0  0  0  0
   10.6828   -2.9592   23.4066 O   0  0  0  0  0  0  0  0  0  0  0  0
   10.0879   -3.7813   25.4794 C   0  0  0  0  0  0  0  0  0  0  0  0
    9.7310   -1.5314   25.1424 O   0  0  0  0  0  0  0  0  0  0  0  0
    5.4472   -8.1930   17.5707 C   0  0  0  0  0  0  0  0  0  0  0  0
    9.8878   -2.1507   25.7163 C   0  0  0  0  0  0  0  0  0  0  0  0
   11.1034   -3.2214   19.7874 C   0  0  0  0  0  0  0  0  0  0  0  0
   10.2010   -3.9294   16.8273 C   0  0  0  0  0  0  0  0  0  0  0  0
    7.7260   -6.0658   16.0287 C   0  0  0  0  0  0  0  0  0  0  0  0
   11.2140   -2.6510   20.7613 S   0  0  0  0  0  0  0  0  0  0  0  0
   10.9512   -3.5176   21.7809 C   0  0  0  0  0  0  0  0  0  0  0  0
   10.7709   -4.0044   24.2466 C   0  0  0  0  0  0  0  0  0  0  0  0
    6.2043   -8.4873   16.3679 F   0  0  0  0  0  0  0  0  0  0  0  0
    3.8984   -8.7091   17.3532 C   0  0  0  0  0  0  0  0  0  0  0  0
   10.3453   -2.0764   24.0926 C   0  0  0  0  0  0  0  0  0  0  0  0
    9.6511   -2.1592   27.0908 F   0  0  0  0  0  0  0  0  0  0  0  0
   11.3676   -3.0003   16.3972 N   0  0  0  0  0  0  0  0  0  0  0  0
   10.5140   -5.6136   20.2335 C   0  0  0  0  0  0  0  0  0  0  0  0
    7.4899   -7.6438   16.5797 C   0  0  0  0  0  0  0  0  0  0  0  0
   10.8321   -4.5652   19.3736 C   0  0  0  0  0  0  0  0  0  0  0  0
    4.6606   -9.7162   15.2144 C   0  0  0  0  0  0  0  0  0  0  0  0
    9.4672   -7.0700   18.0051 He  0  0  0  0  0  0  0  0  0  0  0  0
    6.4418   -9.1439   15.2871 He  0  0  0  0  0  0  0  0  0  0  0  0
    8.8450   -8.2115   17.5894 He  0  0  0  0  0  0  0  0  0  0  0  0
  1  5  1  0
  1 13  2  0
  2  4  1  0
  2  5  4  0
  3  5  1  0
  3 12  1  0
  3 19  4  0
  3 26  4  0
  4 13  1  0
  4 25  1  0
  5  9  4  0
  5 14  4  0
  6 23  4  0
  7 16  1  0
  7 17  4  0
  7 19  4  0
  7 20  4  0
  7 24  3  0
  8 11  4  0
  8 17  4  0
  8 20  4  0
  9 20  4  0
 10 18  4  0
 10 19  4  0
 11 17  1  0
 11 23  2  0
 12 15  4  0
 12 21  1  0
 12 25  4  0
 13 20  4  0
 13 22  1  0
 14 19  3  0
 14 24  4  0
 15 16  4  0
 15 21  3  0
 15 23  4  0
 15 26  4  0
 17 18  3  0
 18 24  1  0
 18 25  4  0
 18 26  2  0
 19 21  2  0
 19 22  2  0
 21 23  1  0
 23 25  4  0
 24 25  2  0
 24 26  4  0
M  END
$$$$

 Created by Python create_sdf_string function

 29 33  0  0  0  0  0  0  0  0999 V2000
    9.5298   -7.1849   17.9993 C   0  0  0  0  0  0  0  0  0  0  0  0
    9.2070   -4.3642   15.9794 N   0  0  0  0  0  0  0  0  0  0  0  0
    9.5539   -5.9057   17.5600 C   0  0  0  0  0  0  0  0  0  0  0  0
    3.8617   -9.4381   16.1374 N   0  0  0  0  0  0  0  0  0  0  0  0
   10.3260   -4.8013   17.9723 C   0  0  0  0  0  0  0  0  0  0  0  0
    8.7715   -5.5633   16.4728 C   0  0  0  0  0  0  0  0  0  0  0  0
   10.7523   -4.9389   21.5829 C   0  0  0  0  0  0  0  0  0  0  0  0
   10.5968   -3.1765   23.2985 C   0  0  0  0  0  0  0  0  0  0  0  0
   10.2489   -3.7458   25.6438 C   0  0  0  0  0  0  0  0  0  0  0  0
    9.8654   -1.4764   24.9036 C   0  0  0  0  0  0  0  0  0  0  0  0
    5.3376   -8.1769   17.4433 C   0  0  0  0  0  0  0  0  0  0  0  0
    9.8674   -2.4537   25.9016 C   0  0  0  0  0  0  0  0  0  0  0  0
    6.1211   -9.0913   15.3978 C   0  0  0  0  0  0  0  0  0  0  0  0
   11.0383   -3.0922   19.5999 C   0  0  0  0  0  0  0  0  0  0  0  0
   10.2566   -3.9683   16.7977 C   0  0  0  0  0  0  0  0  0  0  0  0
    7.7908   -6.3795   16.0470 C   0  0  0  0  0  0  0  0  0  0  0  0
   11.1536   -2.7062   20.8775 C   0  0  0  0  0  0  0  0  0  0  0  0
   10.8454   -3.6025   21.9124 C   0  0  0  0  0  0  0  0  0  0  0  0
   10.6424   -4.0897   24.3037 C   0  0  0  0  0  0  0  0  0  0  0  0
    6.3636   -8.2711   16.5122 C   0  0  0  0  0  0  0  0  0  0  0  0
    4.1070   -8.7639   17.2300 C   0  0  0  0  0  0  0  0  0  0  0  0
   10.2536   -1.8677   23.6024 C   0  0  0  0  0  0  0  0  0  0  0  0
    9.4931   -2.1475   27.1454 F   0  0  0  0  0  0  0  0  0  0  0  0
    8.5345   -8.0431   17.5821 C   0  0  0  0  0  0  0  0  0  0  0  0
   11.1940   -2.9938   16.4666 N   0  0  0  0  0  0  0  0  0  0  0  0
   10.6565   -5.3366   20.2937 C   0  0  0  0  0  0  0  0  0  0  0  0
    7.5187   -7.6132   16.6700 C   0  0  0  0  0  0  0  0  0  0  0  0
   10.7023   -4.3755   19.2825 C   0  0  0  0  0  0  0  0  0  0  0  0
    4.8494   -9.6523   15.2134 C   0  0  0  0  0  0  0  0  0  0  0  0
  1  3  4  0
  1 24  4  0
  2  6  1  0
  2 15  2  0
  3  5  1  0
  3  6  4  0
  4 21  4  0
  4 29  4  0
  5 15  1  0
  5 28  1  0
  6 16  4  0
  7 18  4  0
  7 26  4  0
  8 18  1  0
  8 19  4  0
  8 22  4  0
  9 12  4  0
  9 19  4  0
 10 12  4  0
 10 22  4  0
 11 20  4  0
 11 21  4  0
 12 23  1  0
 13 20  4  0
 13 29  4  0
 14 17  4  0
 14 28  4  0
 15 25  1  0
 16 27  4  0
 17 18  4  0
 20 27  1  0
 24 27  4  0
 26 28  4  0
M  END
$$$$

 Created by Python create_sdf_string function

 29 55  0  0  0  0  0  0  0  0999 V2000
    9.4519   -7.2628   17.7553 C   0  0  0  0  0  0  0  0  0  0  0  0
    8.9791   -4.1680   16.1344 N   0  0  0  0  0  0  0  0  0  0  0  0
    9.4588   -5.6056   17.4028 C   0  0  0  0  0  0  0  0  0  0  0  0
    3.9317   -9.2986   16.0478 N   0  0  0  0  0  0  0  0  0  0  0  0
   10.3500   -5.0073   17.6767 C   0  0  0  0  0  0  0  0  0  0  0  0
    8.6709   -5.4916   16.4568 C   0  0  0  0  0  0  0  0  0  0  0  0
   11.2201   -5.1442   21.6313 C   0  0  0  0  0  0  0  0  0  0  0  0
   10.3971   -3.2072   23.3248 C   0  0  0  0  0  0  0  0  0  0  0  0
   10.2762   -3.7669   25.7071 C   0  0  0  0  0  0  0  0  0  0  0  0
   10.0796   -1.5903   24.7577 C   0  0  0  0  0  0  0  0  0  0  0  0
    5.4323   -8.2124   17.3612 C   0  0  0  0  0  0  0  0  0  0  0  0
    6.2157   -9.3011   15.3594 C   0  0  0  0  0  0  0  0  0  0  0  0
   11.1743   -3.2652   19.5116 C   0  0  0  0  0  0  0  0  0  0  0  0
   10.2689   -3.8838   16.8276 C   0  0  0  0  0  0  0  0  0  0  0  0
    7.6806   -6.2481   16.2157 C   0  0  0  0  0  0  0  0  0  0  0  0
   11.3512   -2.8392   20.7509 C   0  0  0  0  0  0  0  0  0  0  0  0
   10.9397   -3.4498   21.8593 C   0  0  0  0  0  0  0  0  0  0  0  0
   10.5610   -4.1855   24.3862 C   0  0  0  0  0  0  0  0  0  0  0  0
    6.7458   -8.5446   16.4908 C   0  0  0  0  0  0  0  0  0  0  0  0
    4.2996   -8.4560   17.3971 C   0  0  0  0  0  0  0  0  0  0  0  0
   10.3420   -1.7515   23.5289 C   0  0  0  0  0  0  0  0  0  0  0  0
    9.5620   -1.9547   27.1323 F   0  0  0  0  0  0  0  0  0  0  0  0
    8.8259   -7.8463   17.6781 C   0  0  0  0  0  0  0  0  0  0  0  0
   11.6444   -3.1045   16.4552 N   0  0  0  0  0  0  0  0  0  0  0  0
   10.6205   -5.4224   20.3779 C   0  0  0  0  0  0  0  0  0  0  0  0
    7.6712   -7.6895   16.8557 C   0  0  0  0  0  0  0  0  0  0  0  0
   10.6313   -4.4491   19.2370 C   0  0  0  0  0  0  0  0  0  0  0  0
    4.7331   -9.5529   15.1827 C   0  0  0  0  0  0  0  0  0  0  0  0
    9.8696   -2.2329   25.8441 He  0  0  0  0  0  0  0  0  0  0  0  0
  1  3  1  0
  1 12  2  0
  1 16  2  0
  1 23  1  0
  1 27  3  0
  2  6  1  0
  2 14  2  0
  3  6  4  0
  3  8  3  0
  3 22  2  0
  3 27  2  0
  3 28  4  0
  4  9  4  0
  4 14  1  0
  4 20  4  0
  4 28  4  0
  5 13  1  0
  5 14  1  0
  5 28  2  0
  6  9  4  0
  6 15  4  0
  6 24  2  0
  7 23  2  0
  7 25  4  0
  8  9  4  0
  8 11  1  0
  8 15  1  0
  8 17  1  0
  8 18  4  0
  8 21  4  0
  8 26  4  0
  9 18  4  0
  9 21  3  0
 10 21  4  0
 11 19  4  0
 12 17  2  0
 12 19  4  0
 12 28  4  0
 13 27  4  0
 14 18  1  0
 14 24  1  0
 15 26  4  0
 16 17  4  0
 17 19  1  0
 18 19  1  0
 18 24  4  0
 19 22  4  0
 19 26  1  0
 20 23  2  0
 21 26  1  0
 23 26  4  0
 23 27  1  0
 24 28  2  0
 25 27  4  0
 27 28  4  0
M  END
$$$$

 Created by Python create_sdf_string function

 29 33  0  0  0  0  0  0  0  0999 V2000
    9.6236   -7.1762   18.0098 C   0  0  0  0  0  0  0  0  0  0  0  0
    9.1610   -4.2793   16.0742 N   0  0  0  0  0  0  0  0  0  0  0  0
    9.5664   -5.8974   17.5605 C   0  0  0  0  0  0  0  0  0  0  0  0
    3.9226   -9.3003   16.0952 N   0  0  0  0  0  0  0  0  0  0  0  0
   10.3171   -4.7935   17.9772 C   0  0  0  0  0  0  0  0  0  0  0  0
    8.7119   -5.5266   16.5235 C   0  0  0  0  0  0  0  0  0  0  0  0
   10.8445   -5.0073   21.5872 C   0  0  0  0  0  0  0  0  0  0  0  0
   10.6391   -3.2194   23.2711 C   0  0  0  0  0  0  0  0  0  0  0  0
   10.2181   -3.6775   25.6101 C   0  0  0  0  0  0  0  0  0  0  0  0
    9.9565   -1.4455   24.8008 C   0  0  0  0  0  0  0  0  0  0  0  0
    5.3995   -8.1597   17.4800 C   0  0  0  0  0  0  0  0  0  0  0  0
    9.9324   -2.3484   25.8166 C   0  0  0  0  0  0  0  0  0  0  0  0
    6.1874   -9.1071   15.4559 C   0  0  0  0  0  0  0  0  0  0  0  0
   11.0938   -3.1314   19.6024 C   0  0  0  0  0  0  0  0  0  0  0  0
   10.2686   -3.9407   16.8190 C   0  0  0  0  0  0  0  0  0  0  0  0
    7.7092   -6.3298   16.1472 C   0  0  0  0  0  0  0  0  0  0  0  0
   11.1995   -2.7762   20.8555 C   0  0  0  0  0  0  0  0  0  0  0  0
   10.9188   -3.6458   21.8960 C   0  0  0  0  0  0  0  0  0  0  0  0
   10.5979   -4.1204   24.3067 C   0  0  0  0  0  0  0  0  0  0  0  0
    6.4471   -8.2777   16.5596 C   0  0  0  0  0  0  0  0  0  0  0  0
    4.1726   -8.6450   17.2007 C   0  0  0  0  0  0  0  0  0  0  0  0
   10.3284   -1.8824   23.4862 C   0  0  0  0  0  0  0  0  0  0  0  0
    9.5972   -1.9411   27.0303 F   0  0  0  0  0  0  0  0  0  0  0  0
    8.6660   -8.0314   17.5776 C   0  0  0  0  0  0  0  0  0  0  0  0
   11.3155   -3.0763   16.4567 N   0  0  0  0  0  0  0  0  0  0  0  0
   10.7789   -5.3708   20.2566 C   0  0  0  0  0  0  0  0  0  0  0  0
    7.5968   -7.5795   16.7092 C   0  0  0  0  0  0  0  0  0  0  0  0
   10.7691   -4.4132   19.2683 C   0  0  0  0  0  0  0  0  0  0  0  0
    4.9086   -9.6006   15.2184 C   0  0  0  0  0  0  0  0  0  0  0  0
  1  3  4  0
  1 24  4  0
  2  6  1  0
  2 15  2  0
  3  5  4  0
  3  6  4  0
  4 21  4  0
  4 29  4  0
  5 15  1  0
  5 28  1  0
  6 16  4  0
  7 18  4  0
  7 26  4  0
  8 18  1  0
  8 19  4  0
  8 22  4  0
  9 12  4  0
  9 19  4  0
 10 12  4  0
 10 22  4  0
 11 20  4  0
 11 21  4  0
 12 23  1  0
 13 20  4  0
 13 29  4  0
 14 17  4  0
 14 28  4  0
 15 25  1  0
 16 27  4  0
 17 18  4  0
 20 27  1  0
 24 27  4  0
 26 28  4  0
M  END
$$$$

 Created by Python create_sdf_string function

 29 48  0  0  0  0  0  0  0  0999 V2000
    9.6058   -7.1962   18.0528 C   0  0  0  0  0  0  0  0  0  0  0  0
    8.9494   -4.1969   16.1488 N   0  0  0  0  0  0  0  0  0  0  0  0
    9.5437   -5.8780   17.6524 C   0  0  0  0  0  0  0  0  0  0  0  0
    3.8494   -9.2982   16.2202 N   0  0  0  0  0  0  0  0  0  0  0  0
   10.6042   -4.4380   18.2008 C   0  0  0  0  0  0  0  0  0  0  0  0
    8.7708   -5.5339   16.5422 C   0  0  0  0  0  0  0  0  0  0  0  0
   11.0295   -4.9409   22.0384 C   0  0  0  0  0  0  0  0  0  0  0  0
   10.7018   -2.8274   23.3558 C   0  0  0  0  0  0  0  0  0  0  0  0
   10.2951   -3.9544   25.6831 C   0  0  0  0  0  0  0  0  0  0  0  0
    9.8822   -1.7178   24.8725 C   0  0  0  0  0  0  0  0  0  0  0  0
    5.3394   -7.9358   17.1319 C   0  0  0  0  0  0  0  0  0  0  0  0
   10.0156   -2.2452   25.5854 C   0  0  0  0  0  0  0  0  0  0  0  0
    5.6976   -8.9045   15.2653 C   0  0  0  0  0  0  0  0  0  0  0  0
   10.0407   -3.8601   16.9471 C   0  0  0  0  0  0  0  0  0  0  0  0
    7.6241   -6.4462   16.1943 C   0  0  0  0  0  0  0  0  0  0  0  0
   11.1557   -2.9256   20.8167 C   0  0  0  0  0  0  0  0  0  0  0  0
   10.8917   -3.8046   22.0644 C   0  0  0  0  0  0  0  0  0  0  0  0
   10.7029   -4.3298   24.2701 C   0  0  0  0  0  0  0  0  0  0  0  0
    6.4389   -8.2869   16.3016 C   0  0  0  0  0  0  0  0  0  0  0  0
    4.1936   -8.8766   16.8521 B   0  0  0  0  0  0  0  0  0  0  0  0
   10.3398   -1.7374   23.5193 C   0  0  0  0  0  0  0  0  0  0  0  0
    9.6248   -1.8242   26.9757 F   0  0  0  0  0  0  0  0  0  0  0  0
    8.6768   -7.9021   17.5060 C   0  0  0  0  0  0  0  0  0  0  0  0
   11.1458   -3.2356   16.1913 N   0  0  0  0  0  0  0  0  0  0  0  0
   10.7277   -5.2141   20.1682 C   0  0  0  0  0  0  0  0  0  0  0  0
    7.5787   -7.5482   16.8091 C   0  0  0  0  0  0  0  0  0  0  0  0
   10.7146   -4.4769   19.0748 C   0  0  0  0  0  0  0  0  0  0  0  0
    4.7122   -9.6610   15.4504 C   0  0  0  0  0  0  0  0  0  0  0  0
   11.2593   -3.2159   19.5518 He  0  0  0  0  0  0  0  0  0  0  0  0
  1  3  4  0
  1  6  1  0
  1 12  2  0
  1 23  4  0
  2  6  1  0
  2 14  2  0
  3  5  4  0
  3  6  4  0
  4  5  1  0
  4 20  4  0
  4 28  4  0
  5 14  1  0
  5 27  1  0
  6 11  3  0
  6 15  4  0
  7 25  4  0
  7 26  2  0
  8 14  4  0
  8 17  2  0
  8 18  4  0
  8 21  4  0
  9 12  4  0
  9 13  2  0
  9 16  4  0
  9 18  4  0
 10 12  4  0
 10 15  2  0
 10 21  4  0
 11 19  4  0
 11 20  4  0
 11 22  2  0
 11 26  4  0
 12 18  2  0
 12 22  2  0
 12 26  2  0
 13 17  1  0
 13 18  2  0
 13 19  4  0
 13 28  3  0
 14 21  4  0
 14 24  1  0
 15 26  4  0
 16 17  4  0
 17 23  3  0
 19 26  1  0
 23 26  4  0
 24 25  2  0
 25 27  4  0
M  END
$$$$

 Created by Python create_sdf_string function

 29 33  0  0  0  0  0  0  0  0999 V2000
    9.5227   -7.2013   18.0407 C   0  0  0  0  0  0  0  0  0  0  0  0
    9.0682   -4.2894   16.1116 N   0  0  0  0  0  0  0  0  0  0  0  0
    9.5353   -5.8854   17.6215 C   0  0  0  0  0  0  0  0  0  0  0  0
    3.8357   -9.3881   16.1314 N   0  0  0  0  0  0  0  0  0  0  0  0
   10.2872   -4.7762   18.0144 C   0  0  0  0  0  0  0  0  0  0  0  0
    8.6986   -5.5381   16.5909 C   0  0  0  0  0  0  0  0  0  0  0  0
   10.8852   -4.9929   21.6121 C   0  0  0  0  0  0  0  0  0  0  0  0
   10.6489   -3.2187   23.2939 C   0  0  0  0  0  0  0  0  0  0  0  0
   10.3086   -3.6995   25.6545 C   0  0  0  0  0  0  0  0  0  0  0  0
    9.9108   -1.4516   24.8198 C   0  0  0  0  0  0  0  0  0  0  0  0
    5.2539   -8.0253   17.3519 C   0  0  0  0  0  0  0  0  0  0  0  0
    9.9274   -2.3797   25.8359 C   0  0  0  0  0  0  0  0  0  0  0  0
    6.0244   -8.9941   15.3662 C   0  0  0  0  0  0  0  0  0  0  0  0
   11.0888   -3.1202   19.6192 C   0  0  0  0  0  0  0  0  0  0  0  0
   10.1730   -3.9264   16.8388 C   0  0  0  0  0  0  0  0  0  0  0  0
    7.6969   -6.3049   16.1387 C   0  0  0  0  0  0  0  0  0  0  0  0
   11.2083   -2.7589   20.9044 C   0  0  0  0  0  0  0  0  0  0  0  0
   10.9240   -3.6327   21.9301 C   0  0  0  0  0  0  0  0  0  0  0  0
   10.7008   -4.1138   24.3441 C   0  0  0  0  0  0  0  0  0  0  0  0
    6.3080   -8.1782   16.4723 C   0  0  0  0  0  0  0  0  0  0  0  0
    4.0631   -8.6312   17.1416 C   0  0  0  0  0  0  0  0  0  0  0  0
   10.2931   -1.8863   23.5064 C   0  0  0  0  0  0  0  0  0  0  0  0
    9.5783   -1.9627   27.0671 F   0  0  0  0  0  0  0  0  0  0  0  0
    8.5059   -8.0200   17.5683 C   0  0  0  0  0  0  0  0  0  0  0  0
   11.1293   -3.0163   16.3906 N   0  0  0  0  0  0  0  0  0  0  0  0
   10.7978   -5.3544   20.2849 C   0  0  0  0  0  0  0  0  0  0  0  0
    7.4800   -7.5394   16.6720 C   0  0  0  0  0  0  0  0  0  0  0  0
   10.7460   -4.4026   19.2993 C   0  0  0  0  0  0  0  0  0  0  0  0
    4.7943   -9.5653   15.1914 C   0  0  0  0  0  0  0  0  0  0  0  0
  1  3  4  0
  1 24  4  0
  2  6  1  0
  2 15  2  0
  3  5  4  0
  3  6  4  0
  4 21  4  0
  4 29  4  0
  5 15  1  0
  5 28  1  0
  6 16  4  0
  7 18  4  0
  7 26  4  0
  8 18  1  0
  8 19  4  0
  8 22  4  0
  9 12  4  0
  9 19  4  0
 10 12  4  0
 10 22  4  0
 11 20  4  0
 11 21  4  0
 12 23  1  0
 13 20  4  0
 13 29  4  0
 14 17  4  0
 14 28  4  0
 15 25  1  0
 16 27  4  0
 17 18  4  0
 20 27  1  0
 24 27  4  0
 26 28  4  0
M  END
$$$$

 Created by Python create_sdf_string function

 29 42  0  0  0  0  0  0  0  0999 V2000
    9.4631   -7.2289   18.0181 C   0  0  0  0  0  0  0  0  0  0  0  0
    9.1482   -4.1635   15.8985 N   0  0  0  0  0  0  0  0  0  0  0  0
    9.5432   -5.8628   17.5691 C   0  0  0  0  0  0  0  0  0  0  0  0
    3.7622   -9.2945   15.9925 N   0  0  0  0  0  0  0  0  0  0  0  0
   10.1827   -4.8215   17.8384 C   0  0  0  0  0  0  0  0  0  0  0  0
    8.6939   -5.4950   16.5228 C   0  0  0  0  0  0  0  0  0  0  0  0
   10.7919   -3.1505   23.6280 C   0  0  0  0  0  0  0  0  0  0  0  0
    5.3864   -8.1254   17.6647 C   0  0  0  0  0  0  0  0  0  0  0  0
    9.6202   -2.3693   25.8540 C   0  0  0  0  0  0  0  0  0  0  0  0
    5.9252   -8.8619   15.4812 C   0  0  0  0  0  0  0  0  0  0  0  0
   11.1415   -3.0455   19.7264 C   0  0  0  0  0  0  0  0  0  0  0  0
   10.3326   -3.9725   16.7264 C   0  0  0  0  0  0  0  0  0  0  0  0
    7.7903   -6.3299   16.0955 C   0  0  0  0  0  0  0  0  0  0  0  0
   11.0994   -2.6290   20.8700 C   0  0  0  0  0  0  0  0  0  0  0  0
   10.8900   -3.5963   21.9353 C   0  0  0  0  0  0  0  0  0  0  0  0
   10.6915   -3.9813   24.6412 C   0  0  0  0  0  0  0  0  0  0  0  0
    6.3520   -8.3293   16.4021 C   0  0  0  0  0  0  0  0  0  0  0  0
    4.0149   -8.5723   17.1219 C   0  0  0  0  0  0  0  0  0  0  0  0
   10.2161   -1.8045   23.3577 C   0  0  0  0  0  0  0  0  0  0  0  0
    9.4880   -2.0788   26.9830 F   0  0  0  0  0  0  0  0  0  0  0  0
    8.7564   -7.9082   17.5745 F   0  0  0  0  0  0  0  0  0  0  0  0
   10.8982   -5.4772   20.2258 C   0  0  0  0  0  0  0  0  0  0  0  0
    7.7084   -7.4831   16.7910 C   0  0  0  0  0  0  0  0  0  0  0  0
   10.6609   -4.1793   19.0341 C   0  0  0  0  0  0  0  0  0  0  0  0
    4.8906   -9.6332   15.0813 S   0  0  0  0  0  0  0  0  0  0  0  0
   11.1206   -4.6282   21.5340 He  0  0  0  0  0  0  0  0  0  0  0  0
   10.3094   -3.8882   25.7131 He  0  0  0  0  0  0  0  0  0  0  0  0
    9.7971   -1.4182   24.7461 He  0  0  0  0  0  0  0  0  0  0  0  0
   10.8924   -3.0461   16.3013 He  0  0  0  0  0  0  0  0  0  0  0  0
  1  3  4  0
  1  9  4  0
  1 20  1  0
  1 21  4  0
  1 22  3  0
  2  6  4  0
  2 10  4  0
  2 12  2  0
  2 17  4  0
  2 25  1  0
  3  5  4  0
  3  6  4  0
  4  6  1  0
  4 10  3  0
  4 16  3  0
  4 18  4  0
  4 21  4  0
  4 25  4  0
  5  8  1  0
  5 12  1  0
  5 15  4  0
  5 24  1  0
  6 13  4  0
  6 22  2  0
  7 15  1  0
  7 16  4  0
  7 18  1  0
  8 17  4  0
  8 18  4  0
  9 23  3  0
 10 17  4  0
 10 25  4  0
 11 14  3  0
 11 24  4  0
 11 25  2  0
 13 23  4  0
 14 15  4  0
 14 22  4  0
 17 19  2  0
 17 23  1  0
 21 23  4  0
 24 25  3  0
M  END
$$$$

 Created by Python create_sdf_string function

 29 33  0  0  0  0  0  0  0  0999 V2000
    9.5040   -7.1352   18.0606 C   0  0  0  0  0  0  0  0  0  0  0  0
    9.1821   -4.3715   15.9632 N   0  0  0  0  0  0  0  0  0  0  0  0
    9.5403   -5.8580   17.5820 C   0  0  0  0  0  0  0  0  0  0  0  0
    3.8068   -9.2853   16.0651 N   0  0  0  0  0  0  0  0  0  0  0  0
   10.2663   -4.7241   17.9500 C   0  0  0  0  0  0  0  0  0  0  0  0
    8.7602   -5.5501   16.4758 C   0  0  0  0  0  0  0  0  0  0  0  0
   10.9439   -4.8840   21.5679 C   0  0  0  0  0  0  0  0  0  0  0  0
   10.6234   -3.1603   23.3029 C   0  0  0  0  0  0  0  0  0  0  0  0
   10.2832   -3.6760   25.6570 C   0  0  0  0  0  0  0  0  0  0  0  0
    9.7205   -1.4707   24.8380 C   0  0  0  0  0  0  0  0  0  0  0  0
    5.2991   -8.1255   17.4612 C   0  0  0  0  0  0  0  0  0  0  0  0
    9.7890   -2.3931   25.8404 C   0  0  0  0  0  0  0  0  0  0  0  0
    6.0590   -8.9446   15.3880 C   0  0  0  0  0  0  0  0  0  0  0  0
   10.9876   -3.0111   19.5694 C   0  0  0  0  0  0  0  0  0  0  0  0
   10.1750   -3.8924   16.7819 C   0  0  0  0  0  0  0  0  0  0  0  0
    7.7482   -6.3273   16.0780 C   0  0  0  0  0  0  0  0  0  0  0  0
   11.1156   -2.6551   20.8542 C   0  0  0  0  0  0  0  0  0  0  0  0
   10.9152   -3.5555   21.9309 C   0  0  0  0  0  0  0  0  0  0  0  0
   10.7155   -4.0541   24.3572 C   0  0  0  0  0  0  0  0  0  0  0  0
    6.3342   -8.1959   16.5328 C   0  0  0  0  0  0  0  0  0  0  0  0
    4.0569   -8.6555   17.1961 C   0  0  0  0  0  0  0  0  0  0  0  0
   10.1962   -1.8618   23.5438 C   0  0  0  0  0  0  0  0  0  0  0  0
    9.3351   -2.0267   27.0612 F   0  0  0  0  0  0  0  0  0  0  0  0
    8.4995   -7.9802   17.6236 C   0  0  0  0  0  0  0  0  0  0  0  0
   11.0976   -2.9089   16.4225 N   0  0  0  0  0  0  0  0  0  0  0  0
   10.8596   -5.2732   20.2610 C   0  0  0  0  0  0  0  0  0  0  0  0
    7.4976   -7.5297   16.7098 C   0  0  0  0  0  0  0  0  0  0  0  0
   10.7481   -4.3213   19.2483 C   0  0  0  0  0  0  0  0  0  0  0  0
    4.7996   -9.4662   15.1546 C   0  0  0  0  0  0  0  0  0  0  0  0
  1  3  4  0
  1 24  4  0
  2  6  4  0
  2 15  4  0
  3  5  4  0
  3  6  4  0
  4 21  4  0
  4 29  4  0
  5 15  4  0
  5 28  1  0
  6 16  4  0
  7 18  4  0
  7 26  4  0
  8 18  1  0
  8 19  4  0
  8 22  4  0
  9 12  4  0
  9 19  4  0
 10 12  4  0
 10 22  4  0
 11 20  4  0
 11 21  4  0
 12 23  1  0
 13 20  4  0
 13 29  4  0
 14 17  4  0
 14 28  4  0
 15 25  1  0
 16 27  4  0
 17 18  4  0
 20 27  1  0
 24 27  4  0
 26 28  4  0
M  END
$$$$

 Created by Python create_sdf_string function

 29 44  0  0  0  0  0  0  0  0999 V2000
    9.3175   -4.4711   15.8882 F   0  0  0  0  0  0  0  0  0  0  0  0
    9.3671   -5.7393   17.8591 C   0  0  0  0  0  0  0  0  0  0  0  0
    4.0243   -9.0010   16.2057 N   0  0  0  0  0  0  0  0  0  0  0  0
   10.3583   -4.6622   17.8779 C   0  0  0  0  0  0  0  0  0  0  0  0
    8.8804   -5.5715   16.6388 Cl  0  0  0  0  0  0  0  0  0  0  0  0
   10.9031   -4.7033   21.7169 P   0  0  0  0  0  0  0  0  0  0  0  0
   10.4239   -3.2385   23.5462 C   0  0  0  0  0  0  0  0  0  0  0  0
   10.1509   -3.6438   25.3752 C   0  0  0  0  0  0  0  0  0  0  0  0
    9.6237   -1.4481   24.6001 C   0  0  0  0  0  0  0  0  0  0  0  0
    5.2456   -8.2114   17.5329 C   0  0  0  0  0  0  0  0  0  0  0  0
    9.8877   -2.5252   26.0281 C   0  0  0  0  0  0  0  0  0  0  0  0
    6.1016   -8.8528   15.4736 C   0  0  0  0  0  0  0  0  0  0  0  0
   10.2539   -3.8273   16.8681 C   0  0  0  0  0  0  0  0  0  0  0  0
    7.4395   -6.2132   16.0116 C   0  0  0  0  0  0  0  0  0  0  0  0
   11.0532   -2.5484   20.7795 C   0  0  0  0  0  0  0  0  0  0  0  0
   10.9082   -3.5954   21.9680 C   0  0  0  0  0  0  0  0  0  0  0  0
   10.8003   -4.0506   24.3487 C   0  0  0  0  0  0  0  0  0  0  0  0
    6.5767   -8.0639   16.6843 C   0  0  0  0  0  0  0  0  0  0  0  0
    4.2799   -8.5237   17.1304 C   0  0  0  0  0  0  0  0  0  0  0  0
   10.1005   -2.0094   23.6652 C   0  0  0  0  0  0  0  0  0  0  0  0
    9.1805   -2.0267   27.2439 F   0  0  0  0  0  0  0  0  0  0  0  0
    8.4426   -8.3402   17.7452 C   0  0  0  0  0  0  0  0  0  0  0  0
   10.7760   -5.1891   20.2958 C   0  0  0  0  0  0  0  0  0  0  0  0
    7.5171   -7.4996   16.8094 C   0  0  0  0  0  0  0  0  0  0  0  0
   10.5988   -4.6810   19.2166 C   0  0  0  0  0  0  0  0  0  0  0  0
    4.7000   -9.6188   15.4017 C   0  0  0  0  0  0  0  0  0  0  0  0
    9.5606   -7.0515   18.1556 He  0  0  0  0  0  0  0  0  0  0  0  0
   11.1667   -3.0043   19.4616 He  0  0  0  0  0  0  0  0  0  0  0  0
   11.1716   -3.0939   16.4875 He  0  0  0  0  0  0  0  0  0  0  0  0
  1  5  4  0
  1 13  4  0
  2  4  4  0
  2  5  4  0
  2  8  2  0
  2 13  1  0
  3 19  4  0
  3 26  4  0
  4 13  4  0
  4 14  3  0
  4 22  3  0
  4 25  1  0
  5 14  4  0
  5 16  2  0
  5 22  3  0
  5 25  2  0
  6 11  3  0
  6 16  4  0
  6 23  4  0
  7 10  4  0
  7 16  1  0
  7 17  4  0
  7 20  4  0
  7 23  4  0
  8 11  4  0
  8 17  4  0
  8 18  2  0
  9 14  3  0
  9 20  4  0
 10 18  4  0
 10 19  3  0
 11 21  1  0
 12 18  4  0
 12 26  4  0
 13 15  2  0
 14 24  4  0
 15 22  2  0
 15 24  4  0
 16 20  4  0
 17 24  3  0
 18 24  1  0
 21 22  2  0
 22 24  4  0
 23 25  4  0
M  END
$$$$

 Created by Python create_sdf_string function

 29 33  0  0  0  0  0  0  0  0999 V2000
    9.4306   -7.1128   18.2033 C   0  0  0  0  0  0  0  0  0  0  0  0
    9.2650   -4.3780   15.9940 N   0  0  0  0  0  0  0  0  0  0  0  0
    9.4941   -5.8414   17.6245 C   0  0  0  0  0  0  0  0  0  0  0  0
    3.8352   -9.2227   16.1763 N   0  0  0  0  0  0  0  0  0  0  0  0
   10.2435   -4.7128   17.9820 C   0  0  0  0  0  0  0  0  0  0  0  0
    8.7545   -5.5420   16.4873 C   0  0  0  0  0  0  0  0  0  0  0  0
   10.8349   -4.8794   21.6056 C   0  0  0  0  0  0  0  0  0  0  0  0
   10.5259   -3.1434   23.3111 C   0  0  0  0  0  0  0  0  0  0  0  0
   10.2586   -3.6655   25.6566 C   0  0  0  0  0  0  0  0  0  0  0  0
    9.6165   -1.5122   24.8252 C   0  0  0  0  0  0  0  0  0  0  0  0
    5.2719   -8.0534   17.5548 C   0  0  0  0  0  0  0  0  0  0  0  0
    9.7177   -2.4257   25.8495 C   0  0  0  0  0  0  0  0  0  0  0  0
    6.0722   -8.9684   15.5056 C   0  0  0  0  0  0  0  0  0  0  0  0
   10.9960   -3.0223   19.5948 C   0  0  0  0  0  0  0  0  0  0  0  0
   10.2784   -3.9357   16.8329 C   0  0  0  0  0  0  0  0  0  0  0  0
    7.7253   -6.3216   16.1096 C   0  0  0  0  0  0  0  0  0  0  0  0
   11.0712   -2.6412   20.8899 C   0  0  0  0  0  0  0  0  0  0  0  0
   10.8210   -3.5395   21.9409 C   0  0  0  0  0  0  0  0  0  0  0  0
   10.6694   -4.0523   24.3502 C   0  0  0  0  0  0  0  0  0  0  0  0
    6.3232   -8.1738   16.6363 C   0  0  0  0  0  0  0  0  0  0  0  0
    4.0688   -8.5820   17.2569 C   0  0  0  0  0  0  0  0  0  0  0  0
   10.0655   -1.8823   23.5319 C   0  0  0  0  0  0  0  0  0  0  0  0
    9.2756   -2.0909   27.0850 F   0  0  0  0  0  0  0  0  0  0  0  0
    8.4552   -7.9719   17.7467 C   0  0  0  0  0  0  0  0  0  0  0  0
   11.1921   -2.9102   16.5112 N   0  0  0  0  0  0  0  0  0  0  0  0
   10.7813   -5.2635   20.2949 C   0  0  0  0  0  0  0  0  0  0  0  0
    7.4883   -7.5059   16.7932 C   0  0  0  0  0  0  0  0  0  0  0  0
   10.6849   -4.3187   19.2769 C   0  0  0  0  0  0  0  0  0  0  0  0
    4.8062   -9.4331   15.2794 C   0  0  0  0  0  0  0  0  0  0  0  0
  1  3  4  0
  1 24  4  0
  2  6  4  0
  2 15  4  0
  3  5  4  0
  3  6  4  0
  4 21  4  0
  4 29  4  0
  5 15  4  0
  5 28  1  0
  6 16  4  0
  7 18  4  0
  7 26  4  0
  8 18  1  0
  8 19  4  0
  8 22  4  0
  9 12  4  0
  9 19  4  0
 10 12  4  0
 10 22  4  0
 11 20  4  0
 11 21  4  0
 12 23  1  0
 13 20  4  0
 13 29  4  0
 14 17  4  0
 14 28  4  0
 15 25  1  0
 16 27  4  0
 17 18  4  0
 20 27  1  0
 24 27  4  0
 26 28  4  0
M  END
$$$$

 Created by Python create_sdf_string function

 29 50  0  0  0  0  0  0  0  0999 V2000
    9.4760   -7.1273   18.4452 C   0  0  0  0  0  0  0  0  0  0  0  0
    9.2176   -4.4837   15.9588 N   0  0  0  0  0  0  0  0  0  0  0  0
    9.5085   -5.4877   17.7578 C   0  0  0  0  0  0  0  0  0  0  0  0
    3.7680   -9.2729   16.1313 N   0  0  0  0  0  0  0  0  0  0  0  0
   10.3466   -4.8870   18.0366 C   0  0  0  0  0  0  0  0  0  0  0  0
    8.7354   -5.6014   16.5458 C   0  0  0  0  0  0  0  0  0  0  0  0
   10.9467   -4.7405   21.6102 C   0  0  0  0  0  0  0  0  0  0  0  0
   10.6650   -3.1944   23.0299 C   0  0  0  0  0  0  0  0  0  0  0  0
   10.2544   -3.6047   25.2651 C   0  0  0  0  0  0  0  0  0  0  0  0
    9.5892   -1.3287   24.8936 C   0  0  0  0  0  0  0  0  0  0  0  0
    5.2846   -7.9880   17.5773 C   0  0  0  0  0  0  0  0  0  0  0  0
    9.8450   -1.9961   25.7699 C   0  0  0  0  0  0  0  0  0  0  0  0
   10.9928   -2.9450   19.5147 C   0  0  0  0  0  0  0  0  0  0  0  0
   10.4952   -3.9025   16.8999 C   0  0  0  0  0  0  0  0  0  0  0  0
    7.7963   -6.1723   16.4454 C   0  0  0  0  0  0  0  0  0  0  0  0
   11.0806   -2.6650   20.8954 C   0  0  0  0  0  0  0  0  0  0  0  0
   10.9713   -3.6052   22.1098 C   0  0  0  0  0  0  0  0  0  0  0  0
   10.7976   -4.0996   24.3120 C   0  0  0  0  0  0  0  0  0  0  0  0
    6.2074   -8.0508   16.6124 C   0  0  0  0  0  0  0  0  0  0  0  0
    3.9832   -8.4193   17.1981 C   0  0  0  0  0  0  0  0  0  0  0  0
    9.8087   -1.8129   23.3480 C   0  0  0  0  0  0  0  0  0  0  0  0
    9.3110   -2.1779   27.0974 F   0  0  0  0  0  0  0  0  0  0  0  0
    8.5467   -8.2045   17.6875 C   0  0  0  0  0  0  0  0  0  0  0  0
   11.1996   -2.9480   16.6690 N   0  0  0  0  0  0  0  0  0  0  0  0
   10.5952   -5.2121   20.2684 C   0  0  0  0  0  0  0  0  0  0  0  0
    7.4854   -7.5948   16.8284 C   0  0  0  0  0  0  0  0  0  0  0  0
   10.8546   -4.1093   19.3232 C   0  0  0  0  0  0  0  0  0  0  0  0
    4.9370   -9.4749   15.4299 C   0  0  0  0  0  0  0  0  0  0  0  0
    6.2079   -9.0471   15.6804 He  0  0  0  0  0  0  0  0  0  0  0  0
  1  3  4  0
  1 12  2  0
  1 17  4  0
  1 23  4  0
  2  6  4  0
  2 14  4  0
  2 28  3  0
  3  5  4  0
  3  6  4  0
  3  9  3  0
  3 12  2  0
  4 20  4  0
  4 23  1  0
  4 28  4  0
  5 12  1  0
  5 14  4  0
  5 27  1  0
  6 15  4  0
  6 23  4  0
  7 17  4  0
  7 25  4  0
  7 28  4  0
  8 11  2  0
  8 17  1  0
  8 18  4  0
  8 21  4  0
  9 10  3  0
  9 12  2  0
  9 16  1  0
  9 18  4  0
  9 22  2  0
  9 25  1  0
 10 12  4  0
 10 21  4  0
 11 15  3  0
 11 19  4  0
 11 20  4  0
 11 27  1  0
 12 22  1  0
 13 16  4  0
 13 27  4  0
 14 23  3  0
 14 24  2  0
 15 26  4  0
 16 17  4  0
 16 25  3  0
 19 26  1  0
 21 24  4  0
 25 27  4  0
 26 27  3  0
M  END
$$$$

 Created by Python create_sdf_string function

 29 33  0  0  0  0  0  0  0  0999 V2000
    9.4541   -7.1294   18.2582 C   0  0  0  0  0  0  0  0  0  0  0  0
    9.3222   -4.4059   16.0390 N   0  0  0  0  0  0  0  0  0  0  0  0
    9.5492   -5.8554   17.7345 C   0  0  0  0  0  0  0  0  0  0  0  0
    3.8244   -9.2435   16.1643 N   0  0  0  0  0  0  0  0  0  0  0  0
   10.2699   -4.7169   18.0510 C   0  0  0  0  0  0  0  0  0  0  0  0
    8.7988   -5.5431   16.5982 C   0  0  0  0  0  0  0  0  0  0  0  0
   10.8567   -4.8475   21.5884 C   0  0  0  0  0  0  0  0  0  0  0  0
   10.5170   -3.0840   23.2390 C   0  0  0  0  0  0  0  0  0  0  0  0
   10.3380   -3.5482   25.6028 C   0  0  0  0  0  0  0  0  0  0  0  0
    9.5711   -1.4306   24.7241 C   0  0  0  0  0  0  0  0  0  0  0  0
    5.1958   -7.9072   17.5059 C   0  0  0  0  0  0  0  0  0  0  0  0
    9.7508   -2.3186   25.7902 C   0  0  0  0  0  0  0  0  0  0  0  0
    6.1182   -9.0218   15.6166 C   0  0  0  0  0  0  0  0  0  0  0  0
   11.0453   -2.9531   19.5850 C   0  0  0  0  0  0  0  0  0  0  0  0
   10.3140   -3.9244   16.8814 C   0  0  0  0  0  0  0  0  0  0  0  0
    7.7319   -6.3018   16.2351 C   0  0  0  0  0  0  0  0  0  0  0  0
   11.1038   -2.5951   20.8624 C   0  0  0  0  0  0  0  0  0  0  0  0
   10.8299   -3.4846   21.8917 C   0  0  0  0  0  0  0  0  0  0  0  0
   10.7135   -3.9626   24.2940 C   0  0  0  0  0  0  0  0  0  0  0  0
    6.2866   -8.1427   16.6827 C   0  0  0  0  0  0  0  0  0  0  0  0
    3.9823   -8.4603   17.2038 C   0  0  0  0  0  0  0  0  0  0  0  0
   10.0120   -1.8091   23.4332 C   0  0  0  0  0  0  0  0  0  0  0  0
    9.3597   -1.9888   27.0328 F   0  0  0  0  0  0  0  0  0  0  0  0
    8.4458   -7.9690   17.8233 C   0  0  0  0  0  0  0  0  0  0  0  0
   11.1561   -2.9987   16.5961 N   0  0  0  0  0  0  0  0  0  0  0  0
   10.7924   -5.2358   20.3242 C   0  0  0  0  0  0  0  0  0  0  0  0
    7.4639   -7.4935   16.8859 C   0  0  0  0  0  0  0  0  0  0  0  0
   10.7131   -4.2821   19.2987 C   0  0  0  0  0  0  0  0  0  0  0  0
    4.8787   -9.5318   15.3740 C   0  0  0  0  0  0  0  0  0  0  0  0
  1  3  4  0
  1 24  4  0
  2  6  4  0
  2 15  4  0
  3  5  4  0
  3  6  4  0
  4 21  4  0
  4 29  4  0
  5 15  4  0
  5 28  1  0
  6 16  4  0
  7 18  4  0
  7 26  4  0
  8 18  1  0
  8 19  4  0
  8 22  4  0
  9 12  4  0
  9 19  4  0
 10 12  4  0
 10 22  4  0
 11 20  4  0
 11 21  4  0
 12 23  1  0
 13 20  4  0
 13 29  4  0
 14 17  4  0
 14 28  4  0
 15 25  2  0
 16 27  4  0
 17 18  4  0
 20 27  1  0
 24 27  4  0
 26 28  4  0
M  END
$$$$

 Created by Python create_sdf_string function

 29 42  0  0  0  0  0  0  0  0999 V2000
    9.3111   -6.9911   18.2339 C   0  0  0  0  0  0  0  0  0  0  0  0
    9.1896   -4.6083   15.9263 N   0  0  0  0  0  0  0  0  0  0  0  0
    9.5871   -5.9243   17.8524 C   0  0  0  0  0  0  0  0  0  0  0  0
    3.9300   -9.3839   16.2504 N   0  0  0  0  0  0  0  0  0  0  0  0
   10.0798   -5.0284   17.8542 C   0  0  0  0  0  0  0  0  0  0  0  0
    8.8443   -5.5637   16.6560 C   0  0  0  0  0  0  0  0  0  0  0  0
   10.4132   -2.8938   23.3291 C   0  0  0  0  0  0  0  0  0  0  0  0
   10.2455   -3.5767   25.4586 C   0  0  0  0  0  0  0  0  0  0  0  0
    5.3591   -7.8656   17.5310 C   0  0  0  0  0  0  0  0  0  0  0  0
    9.8524   -2.2393   26.0034 C   0  0  0  0  0  0  0  0  0  0  0  0
    6.0359   -9.1790   15.5919 C   0  0  0  0  0  0  0  0  0  0  0  0
   10.9313   -2.9722   19.6826 C   0  0  0  0  0  0  0  0  0  0  0  0
   10.5351   -3.7324   17.1298 C   0  0  0  0  0  0  0  0  0  0  0  0
    7.9528   -6.3565   16.5532 C   0  0  0  0  0  0  0  0  0  0  0  0
   10.8038   -2.3386   20.7586 C   0  0  0  0  0  0  0  0  0  0  0  0
   11.0116   -3.6150   21.8858 C   0  0  0  0  0  0  0  0  0  0  0  0
   10.6954   -4.0937   24.2409 C   0  0  0  0  0  0  0  0  0  0  0  0
    6.1218   -7.9220   16.5958 C   0  0  0  0  0  0  0  0  0  0  0  0
    4.0401   -8.6230   17.0189 F   0  0  0  0  0  0  0  0  0  0  0  0
    9.9793   -1.6439   23.2183 C   0  0  0  0  0  0  0  0  0  0  0  0
    9.4380   -2.0101   27.0360 F   0  0  0  0  0  0  0  0  0  0  0  0
    8.3137   -7.9271   17.8508 C   0  0  0  0  0  0  0  0  0  0  0  0
   11.1110   -3.1478   16.8574 N   0  0  0  0  0  0  0  0  0  0  0  0
   10.7238   -5.4415   20.1751 C   0  0  0  0  0  0  0  0  0  0  0  0
   10.6854   -4.2079   19.3125 C   0  0  0  0  0  0  0  0  0  0  0  0
    4.7872   -9.4137   15.3908 C   0  0  0  0  0  0  0  0  0  0  0  0
   10.6873   -4.8137   21.5968 He  0  0  0  0  0  0  0  0  0  0  0  0
    9.5322   -1.3413   24.6451 He  0  0  0  0  0  0  0  0  0  0  0  0
    7.3605   -7.4733   16.8185 He  0  0  0  0  0  0  0  0  0  0  0  0
  1  3  4  0
  1  8  4  0
  1 11  2  0
  1 20  2  0
  1 22  4  0
  2  6  4  0
  2 13  4  0
  3  5  4  0
  3  6  4  0
  3  7  2  0
  3 20  1  0
  4 10  1  0
  4 19  4  0
  4 26  4  0
  5 13  2  0
  5 25  1  0
  6 14  4  0
  6 17  1  0
  7 16  1  0
  7 17  4  0
  7 20  4  0
  8 10  4  0
  8 16  3  0
  8 17  4  0
  9 18  4  0
  9 19  4  0
 10 21  1  0
 11 17  4  0
 11 18  4  0
 11 26  4  0
 12 15  4  0
 12 25  4  0
 12 26  4  0
 13 22  3  0
 13 23  2  0
 13 24  3  0
 15 16  4  0
 17 23  1  0
 19 20  4  0
 19 26  1  0
 21 23  4  0
 24 25  4  0
M  END
$$$$

 Created by Python create_sdf_string function

 29 33  0  0  0  0  0  0  0  0999 V2000
    9.3341   -7.1391   18.3299 C   0  0  0  0  0  0  0  0  0  0  0  0
    9.3255   -4.4471   16.0297 N   0  0  0  0  0  0  0  0  0  0  0  0
    9.4899   -5.8999   17.7696 C   0  0  0  0  0  0  0  0  0  0  0  0
    3.8042   -9.3097   16.1901 N   0  0  0  0  0  0  0  0  0  0  0  0
   10.2355   -4.7962   18.0617 N   0  0  0  0  0  0  0  0  0  0  0  0
    8.8049   -5.5883   16.5890 C   0  0  0  0  0  0  0  0  0  0  0  0
   10.8052   -4.8455   21.6174 C   0  0  0  0  0  0  0  0  0  0  0  0
   10.4518   -3.0660   23.2353 C   0  0  0  0  0  0  0  0  0  0  0  0
   10.2748   -3.5447   25.5963 C   0  0  0  0  0  0  0  0  0  0  0  0
    9.6154   -1.3931   24.7553 C   0  0  0  0  0  0  0  0  0  0  0  0
    5.1480   -7.9250   17.4852 C   0  0  0  0  0  0  0  0  0  0  0  0
    9.7644   -2.2879   25.7885 C   0  0  0  0  0  0  0  0  0  0  0  0
    6.0600   -8.9670   15.5616 C   0  0  0  0  0  0  0  0  0  0  0  0
   10.9133   -2.9854   19.5565 C   0  0  0  0  0  0  0  0  0  0  0  0
   10.2909   -3.9815   16.8913 C   0  0  0  0  0  0  0  0  0  0  0  0
    7.7775   -6.3388   16.1900 C   0  0  0  0  0  0  0  0  0  0  0  0
   10.9670   -2.5834   20.8480 C   0  0  0  0  0  0  0  0  0  0  0  0
   10.7337   -3.4855   21.8890 C   0  0  0  0  0  0  0  0  0  0  0  0
   10.6432   -3.9590   24.2742 C   0  0  0  0  0  0  0  0  0  0  0  0
    6.2266   -8.1171   16.6539 C   0  0  0  0  0  0  0  0  0  0  0  0
    3.9585   -8.5279   17.2014 C   0  0  0  0  0  0  0  0  0  0  0  0
   10.0044   -1.7536   23.4486 C   0  0  0  0  0  0  0  0  0  0  0  0
    9.4185   -1.9216   27.0335 F   0  0  0  0  0  0  0  0  0  0  0  0
    8.2978   -7.9336   17.8910 C   0  0  0  0  0  0  0  0  0  0  0  0
   11.0805   -3.0038   16.6398 N   0  0  0  0  0  0  0  0  0  0  0  0
   10.7208   -5.2864   20.3567 C   0  0  0  0  0  0  0  0  0  0  0  0
    7.4124   -7.4915   16.8858 C   0  0  0  0  0  0  0  0  0  0  0  0
   10.6492   -4.3263   19.3040 C   0  0  0  0  0  0  0  0  0  0  0  0
    4.8487   -9.5555   15.3528 C   0  0  0  0  0  0  0  0  0  0  0  0
  1  3  4  0
  1 24  4  0
  2  6  4  0
  2 15  4  0
  3  5  4  0
  3  6  4  0
  4 21  4  0
  4 29  4  0
  5 15  4  0
  5 28  1  0
  6 16  4  0
  7 18  4  0
  7 26  4  0
  8 18  1  0
  8 19  4  0
  8 22  4  0
  9 12  4  0
  9 19  4  0
 10 12  4  0
 10 22  4  0
 11 20  4  0
 11 21  4  0
 12 23  1  0
 13 20  4  0
 13 29  4  0
 14 17  4  0
 14 28  4  0
 15 25  2  0
 16 27  4  0
 17 18  4  0
 20 27  1  0
 24 27  4  0
 26 28  4  0
M  END
$$$$

 Created by Python create_sdf_string function

 29 33  0  0  0  0  0  0  0  0999 V2000
    9.4203   -7.0989   18.0981 C   0  0  0  0  0  0  0  0  0  0  0  0
    9.2722   -4.3581   16.0929 N   0  0  0  0  0  0  0  0  0  0  0  0
    9.5500   -5.8293   17.7821 C   0  0  0  0  0  0  0  0  0  0  0  0
    3.8154   -9.2970   16.2578 N   0  0  0  0  0  0  0  0  0  0  0  0
   10.1798   -4.9163   18.1340 N   0  0  0  0  0  0  0  0  0  0  0  0
    8.7647   -5.6278   16.4949 C   0  0  0  0  0  0  0  0  0  0  0  0
   10.5568   -3.3405   23.3098 C   0  0  0  0  0  0  0  0  0  0  0  0
    5.0253   -8.1258   17.6622 C   0  0  0  0  0  0  0  0  0  0  0  0
   10.0220   -2.3962   25.6338 C   0  0  0  0  0  0  0  0  0  0  0  0
    6.1287   -8.8362   15.6253 C   0  0  0  0  0  0  0  0  0  0  0  0
   10.8484   -2.7850   19.3784 C   0  0  0  0  0  0  0  0  0  0  0  0
   10.4079   -3.9159   16.6511 C   0  0  0  0  0  0  0  0  0  0  0  0
   10.9186   -2.7341   20.8561 C   0  0  0  0  0  0  0  0  0  0  0  0
   10.7380   -3.4576   21.8722 C   0  0  0  0  0  0  0  0  0  0  0  0
   10.6821   -4.0373   24.1255 C   0  0  0  0  0  0  0  0  0  0  0  0
    6.0042   -7.9166   16.8081 C   0  0  0  0  0  0  0  0  0  0  0  0
    4.0243   -8.5128   17.5035 C   0  0  0  0  0  0  0  0  0  0  0  0
   10.1016   -1.8855   23.2224 C   0  0  0  0  0  0  0  0  0  0  0  0
    9.3489   -1.8605   27.0157 F   0  0  0  0  0  0  0  0  0  0  0  0
    8.3318   -7.8998   17.7525 C   0  0  0  0  0  0  0  0  0  0  0  0
   10.8118   -2.8352   16.7002 N   0  0  0  0  0  0  0  0  0  0  0  0
   10.7598   -5.3686   20.3836 C   0  0  0  0  0  0  0  0  0  0  0  0
    7.4449   -7.4599   16.9710 C   0  0  0  0  0  0  0  0  0  0  0  0
   10.7703   -4.4976   19.4498 C   0  0  0  0  0  0  0  0  0  0  0  0
    5.0277   -9.3189   15.4634 C   0  0  0  0  0  0  0  0  0  0  0  0
   10.6133   -4.7880   21.7250 He  0  0  0  0  0  0  0  0  0  0  0  0
   10.3953   -3.4848   25.6477 He  0  0  0  0  0  0  0  0  0  0  0  0
    9.5661   -1.4650   24.6560 He  0  0  0  0  0  0  0  0  0  0  0  0
    7.7640   -6.6136   16.1000 He  0  0  0  0  0  0  0  0  0  0  0  0
  1  3  4  0
  1 11  2  0
  1 20  4  0
  1 23  4  0
  2  5  4  0
  2  6  4  0
  2 12  4  0
  3  5  4  0
  3  6  2  0
  3 16  1  0
  4  8  1  0
  4 17  4  0
  4 18  1  0
  4 25  4  0
  5 12  4  0
  5 24  1  0
  7 14  1  0
  7 18  4  0
  8 16  4  0
  9 10  4  0
  9 19  1  0
 10 23  1  0
 10 25  4  0
 11 13  4  0
 11 24  4  0
 12 21  2  0
 13 14  4  0
 14 17  3  0
 16 23  1  0
 16 24  2  0
 18 23  1  0
 20 23  4  0
 22 24  4  0
M  END
$$$$

 Created by Python create_sdf_string function

 29 33  0  0  0  0  0  0  0  0999 V2000
    9.3482   -7.1474   18.2576 C   0  0  0  0  0  0  0  0  0  0  0  0
    9.2885   -4.4581   15.9817 N   0  0  0  0  0  0  0  0  0  0  0  0
    9.5168   -5.9351   17.6879 C   0  0  0  0  0  0  0  0  0  0  0  0
    3.7902   -9.2950   16.2733 N   0  0  0  0  0  0  0  0  0  0  0  0
   10.1848   -4.7989   18.0238 N   0  0  0  0  0  0  0  0  0  0  0  0
    8.7952   -5.6167   16.5034 C   0  0  0  0  0  0  0  0  0  0  0  0
   10.7548   -4.9219   21.5970 C   0  0  0  0  0  0  0  0  0  0  0  0
   10.4827   -3.1388   23.2388 C   0  0  0  0  0  0  0  0  0  0  0  0
   10.3721   -3.5655   25.5864 C   0  0  0  0  0  0  0  0  0  0  0  0
    9.6544   -1.4351   24.7142 C   0  0  0  0  0  0  0  0  0  0  0  0
    5.1580   -8.0164   17.6637 C   0  0  0  0  0  0  0  0  0  0  0  0
    9.8337   -2.3137   25.7418 C   0  0  0  0  0  0  0  0  0  0  0  0
    5.9910   -8.8292   15.5578 C   0  0  0  0  0  0  0  0  0  0  0  0
   10.9183   -3.0631   19.5353 C   0  0  0  0  0  0  0  0  0  0  0  0
   10.1750   -3.9492   16.9006 C   0  0  0  0  0  0  0  0  0  0  0  0
    7.7371   -6.3638   16.1535 C   0  0  0  0  0  0  0  0  0  0  0  0
   10.9488   -2.6732   20.8388 C   0  0  0  0  0  0  0  0  0  0  0  0
   10.7287   -3.5704   21.8790 C   0  0  0  0  0  0  0  0  0  0  0  0
   10.7106   -4.0030   24.3006 C   0  0  0  0  0  0  0  0  0  0  0  0
    6.2049   -8.1053   16.7234 C   0  0  0  0  0  0  0  0  0  0  0  0
    3.9505   -8.6245   17.3675 C   0  0  0  0  0  0  0  0  0  0  0  0
   10.0153   -1.8512   23.4136 C   0  0  0  0  0  0  0  0  0  0  0  0
    9.4535   -1.9071   26.9915 F   0  0  0  0  0  0  0  0  0  0  0  0
    8.2963   -7.9281   17.9036 C   0  0  0  0  0  0  0  0  0  0  0  0
   10.9141   -2.9542   16.6739 N   0  0  0  0  0  0  0  0  0  0  0  0
   10.6910   -5.3244   20.2923 C   0  0  0  0  0  0  0  0  0  0  0  0
    7.3819   -7.4967   16.8996 C   0  0  0  0  0  0  0  0  0  0  0  0
   10.6187   -4.3920   19.2670 C   0  0  0  0  0  0  0  0  0  0  0  0
    4.7763   -9.4184   15.3822 C   0  0  0  0  0  0  0  0  0  0  0  0
  1  3  4  0
  1 24  4  0
  2  6  4  0
  2 15  4  0
  3  5  4  0
  3  6  4  0
  4 21  4  0
  4 29  4  0
  5 15  4  0
  5 28  1  0
  6 16  4  0
  7 18  4  0
  7 26  4  0
  8 18  1  0
  8 19  4  0
  8 22  4  0
  9 12  4  0
  9 19  4  0
 10 12  4  0
 10 22  4  0
 11 20  4  0
 11 21  4  0
 12 23  1  0
 13 20  4  0
 13 29  4  0
 14 17  4  0
 14 28  4  0
 15 25  2  0
 16 27  4  0
 17 18  4  0
 20 27  1  0
 24 27  4  0
 26 28  4  0
M  END
$$$$

 Created by Python create_sdf_string function

 29 41  0  0  0  0  0  0  0  0999 V2000
    9.2684   -4.4447   16.0417 N   0  0  0  0  0  0  0  0  0  0  0  0
    9.3143   -6.0425   17.7835 C   0  0  0  0  0  0  0  0  0  0  0  0
    3.8195   -9.1134   16.1030 N   0  0  0  0  0  0  0  0  0  0  0  0
   10.2723   -4.9372   17.9215 N   0  0  0  0  0  0  0  0  0  0  0  0
    8.9156   -5.3820   16.4378 C   0  0  0  0  0  0  0  0  0  0  0  0
   10.6379   -5.1689   21.8422 C   0  0  0  0  0  0  0  0  0  0  0  0
   10.7353   -3.1711   23.2922 C   0  0  0  0  0  0  0  0  0  0  0  0
   10.4968   -3.5791   25.6041 C   0  0  0  0  0  0  0  0  0  0  0  0
    9.5995   -1.2142   24.9230 C   0  0  0  0  0  0  0  0  0  0  0  0
    5.2247   -7.9002   17.6497 C   0  0  0  0  0  0  0  0  0  0  0  0
    9.8830   -2.3309   25.7944 C   0  0  0  0  0  0  0  0  0  0  0  0
    6.0871   -8.6632   15.6338 C   0  0  0  0  0  0  0  0  0  0  0  0
   10.8047   -2.9903   19.5076 C   0  0  0  0  0  0  0  0  0  0  0  0
   10.1917   -3.9692   16.8031 C   0  0  0  0  0  0  0  0  0  0  0  0
    7.7270   -6.2676   16.1020 C   0  0  0  0  0  0  0  0  0  0  0  0
   10.9961   -2.5843   20.8415 C   0  0  0  0  0  0  0  0  0  0  0  0
   10.8754   -3.5843   21.8964 C   0  0  0  0  0  0  0  0  0  0  0  0
   10.7036   -4.0817   24.3435 C   0  0  0  0  0  0  0  0  0  0  0  0
    6.2072   -8.0534   16.8725 C   0  0  0  0  0  0  0  0  0  0  0  0
    9.9363   -1.7385   23.4183 C   0  0  0  0  0  0  0  0  0  0  0  0
    9.4970   -2.0348   27.0634 F   0  0  0  0  0  0  0  0  0  0  0  0
    8.2753   -7.8755   17.8564 C   0  0  0  0  0  0  0  0  0  0  0  0
   10.8679   -2.7057   16.4805 N   0  0  0  0  0  0  0  0  0  0  0  0
   10.7443   -5.4483   20.3436 C   0  0  0  0  0  0  0  0  0  0  0  0
    7.3474   -7.6417   16.9160 C   0  0  0  0  0  0  0  0  0  0  0  0
   10.5729   -4.4472   19.4202 C   0  0  0  0  0  0  0  0  0  0  0  0
    4.6747   -9.5892   15.2877 C   0  0  0  0  0  0  0  0  0  0  0  0
    9.2531   -7.2051   18.4432 He  0  0  0  0  0  0  0  0  0  0  0  0
    3.9252   -8.6022   17.3675 He  0  0  0  0  0  0  0  0  0  0  0  0
  1  5  4  0
  1  7  1  0
  1 14  4  0
  2  4  4  0
  2  5  4  0
  3 13  3  0
  3 27  4  0
  4 14  4  0
  4 26  1  0
  5  8  2  0
  5 15  4  0
  5 16  2  0
  5 27  3  0
  6 10  2  0
  6 24  4  0
  7 18  4  0
  7 20  4  0
  8 11  4  0
  8 18  4  0
  9 11  4  0
  9 20  4  0
  9 23  1  0
 10 18  4  0
 10 19  4  0
 11 21  1  0
 12 16  1  0
 12 17  3  0
 12 19  3  0
 12 27  4  0
 13 16  4  0
 13 26  4  0
 14 15  1  0
 14 22  2  0
 14 23  2  0
 15 25  4  0
 16 17  4  0
 19 25  1  0
 21 22  4  0
 22 25  4  0
 24 26  4  0
 25 26  1  0
M  END
$$$$

 Created by Python create_sdf_string function

 29 33  0  0  0  0  0  0  0  0999 V2000
    9.2757   -7.0943   18.3468 C   0  0  0  0  0  0  0  0  0  0  0  0
    9.2847   -4.4689   15.9831 N   0  0  0  0  0  0  0  0  0  0  0  0
    9.4307   -5.8960   17.7413 C   0  0  0  0  0  0  0  0  0  0  0  0
    3.7444   -9.2159   16.2305 N   0  0  0  0  0  0  0  0  0  0  0  0
   10.1389   -4.7940   18.0619 N   0  0  0  0  0  0  0  0  0  0  0  0
    8.7524   -5.6057   16.5156 C   0  0  0  0  0  0  0  0  0  0  0  0
   10.7734   -4.9745   21.6581 C   0  0  0  0  0  0  0  0  0  0  0  0
   10.5198   -3.1455   23.2880 C   0  0  0  0  0  0  0  0  0  0  0  0
   10.4175   -3.5745   25.6695 C   0  0  0  0  0  0  0  0  0  0  0  0
    9.6786   -1.4248   24.8027 C   0  0  0  0  0  0  0  0  0  0  0  0
    5.1485   -7.9848   17.6182 C   0  0  0  0  0  0  0  0  0  0  0  0
    9.8728   -2.3254   25.8540 C   0  0  0  0  0  0  0  0  0  0  0  0
    5.9659   -8.8367   15.5520 C   0  0  0  0  0  0  0  0  0  0  0  0
   10.8734   -3.0886   19.5894 C   0  0  0  0  0  0  0  0  0  0  0  0
   10.1553   -3.9708   16.9070 C   0  0  0  0  0  0  0  0  0  0  0  0
    7.7461   -6.3580   16.1381 C   0  0  0  0  0  0  0  0  0  0  0  0
   10.9523   -2.7025   20.8750 C   0  0  0  0  0  0  0  0  0  0  0  0
   10.7476   -3.5886   21.9272 C   0  0  0  0  0  0  0  0  0  0  0  0
   10.7606   -4.0061   24.3491 C   0  0  0  0  0  0  0  0  0  0  0  0
    6.1839   -8.0798   16.6986 C   0  0  0  0  0  0  0  0  0  0  0  0
    3.9271   -8.5431   17.3197 C   0  0  0  0  0  0  0  0  0  0  0  0
   10.0604   -1.8341   23.4862 C   0  0  0  0  0  0  0  0  0  0  0  0
    9.5189   -1.9741   27.0814 F   0  0  0  0  0  0  0  0  0  0  0  0
    8.2257   -7.8799   17.9379 C   0  0  0  0  0  0  0  0  0  0  0  0
   10.8789   -2.9531   16.6751 N   0  0  0  0  0  0  0  0  0  0  0  0
   10.6444   -5.3887   20.3411 C   0  0  0  0  0  0  0  0  0  0  0  0
    7.3661   -7.4482   16.9043 C   0  0  0  0  0  0  0  0  0  0  0  0
   10.5767   -4.4285   19.3134 C   0  0  0  0  0  0  0  0  0  0  0  0
    4.7310   -9.3812   15.3337 C   0  0  0  0  0  0  0  0  0  0  0  0
  1  3  4  0
  1 24  4  0
  2  6  4  0
  2 15  4  0
  3  5  4  0
  3  6  4  0
  4 21  4  0
  4 29  4  0
  5 15  4  0
  5 28  1  0
  6 16  4  0
  7 18  4  0
  7 26  4  0
  8 18  1  0
  8 19  4  0
  8 22  4  0
  9 12  4  0
  9 19  4  0
 10 12  4  0
 10 22  4  0
 11 20  4  0
 11 21  4  0
 12 23  1  0
 13 20  4  0
 13 29  4  0
 14 17  4  0
 14 28  4  0
 15 25  2  0
 16 27  4  0
 17 18  4  0
 20 27  1  0
 24 27  4  0
 26 28  4  0
M  END
$$$$

 Created by Python create_sdf_string function

 29 38  0  0  0  0  0  0  0  0999 V2000
    9.3457   -4.4163   15.8959 N   0  0  0  0  0  0  0  0  0  0  0  0
    9.2997   -6.0556   17.7903 C   0  0  0  0  0  0  0  0  0  0  0  0
    3.6580   -9.2035   16.0887 N   0  0  0  0  0  0  0  0  0  0  0  0
   10.0771   -4.7753   18.1159 N   0  0  0  0  0  0  0  0  0  0  0  0
    8.6321   -5.5481   16.5501 C   0  0  0  0  0  0  0  0  0  0  0  0
   10.7428   -4.9910   21.4700 C   0  0  0  0  0  0  0  0  0  0  0  0
   10.5155   -3.1555   23.3556 Se  0  0  0  0  0  0  0  0  0  0  0  0
   10.2877   -3.3571   25.5255 C   0  0  0  0  0  0  0  0  0  0  0  0
    9.7407   -1.5218   24.7523 C   0  0  0  0  0  0  0  0  0  0  0  0
    5.0854   -7.8036   17.7671 C   0  0  0  0  0  0  0  0  0  0  0  0
    9.7716   -2.2344   25.9058 C   0  0  0  0  0  0  0  0  0  0  0  0
    6.1036   -8.8307   15.5688 C   0  0  0  0  0  0  0  0  0  0  0  0
   10.8509   -3.0602   19.4792 C   0  0  0  0  0  0  0  0  0  0  0  0
    9.9848   -4.1998   16.7976 C   0  0  0  0  0  0  0  0  0  0  0  0
    7.8142   -6.3647   16.0085 C   0  0  0  0  0  0  0  0  0  0  0  0
   10.9463   -2.5656   20.8886 C   0  0  0  0  0  0  0  0  0  0  0  0
   10.7854   -3.5656   21.9318 C   0  0  0  0  0  0  0  0  0  0  0  0
    6.1674   -8.0053   16.7225 C   0  0  0  0  0  0  0  0  0  0  0  0
    3.8931   -8.7801   17.4381 O   0  0  0  0  0  0  0  0  0  0  0  0
   10.0974   -1.6502   23.5153 I   0  0  0  0  0  0  0  0  0  0  0  0
    9.4253   -1.8639   27.0250 F   0  0  0  0  0  0  0  0  0  0  0  0
   10.9585   -2.8905   16.6697 N   0  0  0  0  0  0  0  0  0  0  0  0
   10.5840   -5.4554   20.3333 C   0  0  0  0  0  0  0  0  0  0  0  0
    7.1742   -7.3521   16.8100 C   0  0  0  0  0  0  0  0  0  0  0  0
    4.6272   -9.3639   15.2045 C   0  0  0  0  0  0  0  0  0  0  0  0
    9.1871   -6.9479   18.2682 He  0  0  0  0  0  0  0  0  0  0  0  0
   10.7614   -3.9321   24.3624 He  0  0  0  0  0  0  0  0  0  0  0  0
    8.2442   -7.9449   17.8919 He  0  0  0  0  0  0  0  0  0  0  0  0
   10.6987   -4.4065   19.4140 He  0  0  0  0  0  0  0  0  0  0  0  0
  1  5  4  0
  1 14  4  0
  1 17  2  0
  2  4  4  0
  2  5  4  0
  2 21  4  0
  2 23  3  0
  3 19  4  0
  3 25  4  0
  4 10  3  0
  4 14  4  0
  4 24  4  0
  5 15  1  0
  6  7  1  0
  6  9  3  0
  6 15  1  0
  6 17  4  0
  6 23  4  0
  7 17  2  0
  7 20  4  0
  7 21  4  0
  8 11  4  0
  8 12  2  0
  9 11  4  0
  9 13  3  0
  9 20  4  0
 10 19  4  0
 11 21  3  0
 12 18  4  0
 12 25  4  0
 13 14  4  0
 13 16  4  0
 14 22  2  0
 15 24  4  0
 16 17  4  0
 18 24  1  0
 19 25  3  0
 23 24  4  0
M  END
$$$$

 Created by Python create_sdf_string function

 29 33  0  0  0  0  0  0  0  0999 V2000
    9.1586   -7.0536   18.3335 C   0  0  0  0  0  0  0  0  0  0  0  0
    9.2484   -4.4736   15.9572 N   0  0  0  0  0  0  0  0  0  0  0  0
    9.3597   -5.8823   17.7164 C   0  0  0  0  0  0  0  0  0  0  0  0
    3.6806   -9.2644   16.2018 N   0  0  0  0  0  0  0  0  0  0  0  0
   10.0825   -4.8017   18.0533 N   0  0  0  0  0  0  0  0  0  0  0  0
    8.7225   -5.6009   16.4799 C   0  0  0  0  0  0  0  0  0  0  0  0
   10.7259   -4.9096   21.6312 C   0  0  0  0  0  0  0  0  0  0  0  0
   10.5034   -3.0850   23.2984 C   0  0  0  0  0  0  0  0  0  0  0  0
   10.3240   -3.5089   25.6296 C   0  0  0  0  0  0  0  0  0  0  0  0
    9.6846   -1.3611   24.7584 C   0  0  0  0  0  0  0  0  0  0  0  0
    5.0628   -8.0427   17.5924 C   0  0  0  0  0  0  0  0  0  0  0  0
    9.8144   -2.2423   25.8081 C   0  0  0  0  0  0  0  0  0  0  0  0
    5.8817   -8.7754   15.4807 C   0  0  0  0  0  0  0  0  0  0  0  0
   10.8570   -3.0932   19.5672 C   0  0  0  0  0  0  0  0  0  0  0  0
   10.1309   -4.0157   16.8964 C   0  0  0  0  0  0  0  0  0  0  0  0
    7.6831   -6.3616   16.0736 C   0  0  0  0  0  0  0  0  0  0  0  0
   10.9588   -2.6744   20.8721 C   0  0  0  0  0  0  0  0  0  0  0  0
   10.7402   -3.5398   21.9375 C   0  0  0  0  0  0  0  0  0  0  0  0
   10.6773   -3.9504   24.3418 C   0  0  0  0  0  0  0  0  0  0  0  0
    6.1120   -8.0689   16.6568 C   0  0  0  0  0  0  0  0  0  0  0  0
    3.8575   -8.6330   17.3114 C   0  0  0  0  0  0  0  0  0  0  0  0
   10.0692   -1.7818   23.4666 C   0  0  0  0  0  0  0  0  0  0  0  0
    9.4249   -1.8650   27.0222 F   0  0  0  0  0  0  0  0  0  0  0  0
    8.1389   -7.8569   17.9155 C   0  0  0  0  0  0  0  0  0  0  0  0
   10.9037   -3.0180   16.6737 N   0  0  0  0  0  0  0  0  0  0  0  0
   10.6196   -5.3454   20.3097 C   0  0  0  0  0  0  0  0  0  0  0  0
    7.3012   -7.4464   16.8700 C   0  0  0  0  0  0  0  0  0  0  0  0
   10.5395   -4.3956   19.2952 C   0  0  0  0  0  0  0  0  0  0  0  0
    4.6576   -9.3609   15.2858 C   0  0  0  0  0  0  0  0  0  0  0  0
  1  3  4  0
  1 24  4  0
  2  6  4  0
  2 15  4  0
  3  5  4  0
  3  6  4  0
  4 21  4  0
  4 29  4  0
  5 15  4  0
  5 28  1  0
  6 16  4  0
  7 18  4  0
  7 26  4  0
  8 18  1  0
  8 19  4  0
  8 22  4  0
  9 12  4  0
  9 19  4  0
 10 12  4  0
 10 22  4  0
 11 20  4  0
 11 21  4  0
 12 23  1  0
 13 20  4  0
 13 29  4  0
 14 17  4  0
 14 28  4  0
 15 25  2  0
 16 27  4  0
 17 18  4  0
 20 27  1  0
 24 27  4  0
 26 28  4  0
M  END
$$$$

 Created by Python create_sdf_string function

 29 27  0  0  0  0  0  0  0  0999 V2000
    9.2213   -7.1200   18.4823 C   0  0  0  0  0  0  0  0  0  0  0  0
    9.2996   -4.5639   15.9757 N   0  0  0  0  0  0  0  0  0  0  0  0
    9.4017   -5.7985   17.4831 C   0  0  0  0  0  0  0  0  0  0  0  0
    3.6191   -9.2547   16.1967 N   0  0  0  0  0  0  0  0  0  0  0  0
    9.9859   -4.7894   18.2063 N   0  0  0  0  0  0  0  0  0  0  0  0
   10.7996   -4.8466   21.6357 C   0  0  0  0  0  0  0  0  0  0  0  0
   10.4929   -3.0608   23.3915 C   0  0  0  0  0  0  0  0  0  0  0  0
   10.3003   -3.5379   25.7045 C   0  0  0  0  0  0  0  0  0  0  0  0
    9.5045   -1.4313   24.9878 C   0  0  0  0  0  0  0  0  0  0  0  0
    5.0743   -7.9696   17.5412 C   0  0  0  0  0  0  0  0  0  0  0  0
    9.7345   -2.2152   25.6729 C   0  0  0  0  0  0  0  0  0  0  0  0
    5.6608   -8.7402   15.4019 C   0  0  0  0  0  0  0  0  0  0  0  0
   10.8020   -3.0002   19.5850 C   0  0  0  0  0  0  0  0  0  0  0  0
   10.1868   -3.9058   16.8591 C   0  0  0  0  0  0  0  0  0  0  0  0
    7.7304   -6.3800   15.9359 C   0  0  0  0  0  0  0  0  0  0  0  0
   10.9494   -2.6453   20.7648 C   0  0  0  0  0  0  0  0  0  0  0  0
   10.6459   -3.8794   24.3159 C   0  0  0  0  0  0  0  0  0  0  0  0
    6.3302   -8.0284   16.7497 C   0  0  0  0  0  0  0  0  0  0  0  0
   10.1268   -1.6256   23.4127 C   0  0  0  0  0  0  0  0  0  0  0  0
    9.4181   -1.7305   27.0934 F   0  0  0  0  0  0  0  0  0  0  0  0
    8.0337   -7.7478   17.7820 C   0  0  0  0  0  0  0  0  0  0  0  0
   10.8149   -3.0690   16.7506 N   0  0  0  0  0  0  0  0  0  0  0  0
   10.6764   -5.3690   20.3709 C   0  0  0  0  0  0  0  0  0  0  0  0
    7.3773   -7.3386   16.9091 C   0  0  0  0  0  0  0  0  0  0  0  0
   10.4586   -4.4144   19.3905 C   0  0  0  0  0  0  0  0  0  0  0  0
    4.6343   -9.3318   15.3769 C   0  0  0  0  0  0  0  0  0  0  0  0
    8.6993   -5.6883   16.4757 He  0  0  0  0  0  0  0  0  0  0  0  0
   10.7599   -3.5634   21.8931 He  0  0  0  0  0  0  0  0  0  0  0  0
    3.8935   -8.6537   17.3758 He  0  0  0  0  0  0  0  0  0  0  0  0
  1  3  4  0
  1 21  2  0
  2 14  4  0
  2 22  2  0
  3  5  4  0
  4 26  4  0
  5 25  1  0
  6 23  4  0
  7 19  4  0
  8 11  4  0
  8 14  3  0
  8 17  4  0
  9 11  4  0
  9 19  4  0
 10 18  4  0
 10 19  1  0
 11 20  1  0
 12 18  4  0
 12 26  4  0
 13 16  4  0
 13 25  4  0
 14 22  2  0
 15 24  4  0
 16 21  1  0
 18 24  1  0
 21 24  4  0
 23 25  4  0
M  END
$$$$

 Created by Python create_sdf_string function

 29 33  0  0  0  0  0  0  0  0999 V2000
    9.1270   -7.0487   18.3585 C   0  0  0  0  0  0  0  0  0  0  0  0
    9.2874   -4.5242   15.9354 N   0  0  0  0  0  0  0  0  0  0  0  0
    9.3310   -5.8700   17.7221 C   0  0  0  0  0  0  0  0  0  0  0  0
    3.6378   -9.2609   16.2524 N   0  0  0  0  0  0  0  0  0  0  0  0
   10.0725   -4.8028   18.0840 N   0  0  0  0  0  0  0  0  0  0  0  0
    8.7260   -5.6477   16.4541 C   0  0  0  0  0  0  0  0  0  0  0  0
   10.7670   -4.8517   21.6706 C   0  0  0  0  0  0  0  0  0  0  0  0
   10.4827   -3.0606   23.2939 C   0  0  0  0  0  0  0  0  0  0  0  0
   10.2635   -3.4990   25.6631 C   0  0  0  0  0  0  0  0  0  0  0  0
    9.6159   -1.3372   24.7803 C   0  0  0  0  0  0  0  0  0  0  0  0
    5.0835   -8.0228   17.5944 C   0  0  0  0  0  0  0  0  0  0  0  0
    9.7540   -2.2240   25.8321 C   0  0  0  0  0  0  0  0  0  0  0  0
    5.7877   -8.7106   15.4547 C   0  0  0  0  0  0  0  0  0  0  0  0
   10.7824   -3.0657   19.5705 C   0  0  0  0  0  0  0  0  0  0  0  0
   10.1295   -4.0109   16.9131 C   0  0  0  0  0  0  0  0  0  0  0  0
    7.7373   -6.3877   16.0116 C   0  0  0  0  0  0  0  0  0  0  0  0
   10.9126   -2.6402   20.8667 C   0  0  0  0  0  0  0  0  0  0  0  0
   10.7323   -3.5040   21.9320 C   0  0  0  0  0  0  0  0  0  0  0  0
   10.6490   -3.9285   24.3487 C   0  0  0  0  0  0  0  0  0  0  0  0
    6.0722   -8.0354   16.6267 C   0  0  0  0  0  0  0  0  0  0  0  0
    3.8889   -8.6201   17.3643 C   0  0  0  0  0  0  0  0  0  0  0  0
   10.0293   -1.7508   23.4815 C   0  0  0  0  0  0  0  0  0  0  0  0
    9.3954   -1.8239   27.0542 F   0  0  0  0  0  0  0  0  0  0  0  0
    8.0770   -7.8113   17.9053 C   0  0  0  0  0  0  0  0  0  0  0  0
   10.8250   -3.0099   16.7379 N   0  0  0  0  0  0  0  0  0  0  0  0
   10.6339   -5.3001   20.3604 C   0  0  0  0  0  0  0  0  0  0  0  0
    7.2861   -7.4149   16.8212 C   0  0  0  0  0  0  0  0  0  0  0  0
   10.5134   -4.3827   19.3246 C   0  0  0  0  0  0  0  0  0  0  0  0
    4.5842   -9.3193   15.2981 C   0  0  0  0  0  0  0  0  0  0  0  0
  1  3  4  0
  1 24  4  0
  2  6  4  0
  2 15  4  0
  3  5  4  0
  3  6  4  0
  4 21  4  0
  4 29  4  0
  5 15  4  0
  5 28  1  0
  6 16  4  0
  7 18  4  0
  7 26  4  0
  8 18  1  0
  8 19  4  0
  8 22  4  0
  9 12  4  0
  9 19  4  0
 10 12  4  0
 10 22  4  0
 11 20  4  0
 11 21  4  0
 12 23  1  0
 13 20  4  0
 13 29  4  0
 14 17  4  0
 14 28  4  0
 15 25  2  0
 16 27  4  0
 17 18  4  0
 20 27  1  0
 24 27  4  0
 26 28  4  0
M  END
$$$$

 Created by Python create_sdf_string function

 29 35  0  0  0  0  0  0  0  0999 V2000
    9.2103   -7.1593   18.3460 C   0  0  0  0  0  0  0  0  0  0  0  0
    9.2886   -4.4487   15.9422 Cl  0  0  0  0  0  0  0  0  0  0  0  0
    9.4024   -5.7593   17.6328 C   0  0  0  0  0  0  0  0  0  0  0  0
    3.8451   -9.2199   16.2663 N   0  0  0  0  0  0  0  0  0  0  0  0
   10.0076   -4.7880   18.1942 N   0  0  0  0  0  0  0  0  0  0  0  0
    8.6546   -5.6067   16.5242 C   0  0  0  0  0  0  0  0  0  0  0  0
   10.7039   -4.8906   21.6621 C   0  0  0  0  0  0  0  0  0  0  0  0
   10.5102   -3.0459   23.3423 C   0  0  0  0  0  0  0  0  0  0  0  0
   10.1588   -3.4248   25.6834 C   0  0  0  0  0  0  0  0  0  0  0  0
    9.5737   -1.1894   24.8137 C   0  0  0  0  0  0  0  0  0  0  0  0
    5.1538   -8.0137   17.6159 C   0  0  0  0  0  0  0  0  0  0  0  0
    9.8430   -2.2180   25.9465 C   0  0  0  0  0  0  0  0  0  0  0  0
    5.7985   -8.7892   15.6569 C   0  0  0  0  0  0  0  0  0  0  0  0
   10.8530   -3.1319   19.5972 C   0  0  0  0  0  0  0  0  0  0  0  0
   10.2689   -4.1515   16.7983 C   0  0  0  0  0  0  0  0  0  0  0  0
    7.7703   -6.3416   16.0680 C   0  0  0  0  0  0  0  0  0  0  0  0
   10.8784   -2.6239   20.7674 C   0  0  0  0  0  0  0  0  0  0  0  0
   10.7369   -3.4492   21.9532 C   0  0  0  0  0  0  0  0  0  0  0  0
   10.6069   -3.9267   24.1583 C   0  0  0  0  0  0  0  0  0  0  0  0
    6.0771   -8.0415   16.5432 C   0  0  0  0  0  0  0  0  0  0  0  0
    9.9282   -1.7885   23.6013 O   0  0  0  0  0  0  0  0  0  0  0  0
    9.3945   -1.8171   27.1004 F   0  0  0  0  0  0  0  0  0  0  0  0
    8.1676   -7.8079   17.8469 C   0  0  0  0  0  0  0  0  0  0  0  0
   10.8426   -3.0667   16.9135 N   0  0  0  0  0  0  0  0  0  0  0  0
    7.2673   -7.2822   16.8369 C   0  0  0  0  0  0  0  0  0  0  0  0
   10.5212   -4.4273   19.4179 C   0  0  0  0  0  0  0  0  0  0  0  0
    4.4124   -9.2298   15.3154 C   0  0  0  0  0  0  0  0  0  0  0  0
    3.8914   -8.7121   17.3208 He  0  0  0  0  0  0  0  0  0  0  0  0
   10.7282   -5.1319   20.3294 He  0  0  0  0  0  0  0  0  0  0  0  0
  1  3  4  0
  1 23  1  0
  1 26  4  0
  2  6  4  0
  2 15  4  0
  3  5  4  0
  3  6  4  0
  3 25  3  0
  3 27  4  0
  4  8  1  0
  4 27  4  0
  5 15  4  0
  5 26  1  0
  6 16  4  0
  6 19  1  0
  7 18  4  0
  8 18  1  0
  8 19  4  0
  8 21  4  0
  9 12  4  0
  9 13  2  0
  9 19  4  0
 10 12  4  0
 10 21  4  0
 11 20  4  0
 11 23  1  0
 12 22  2  0
 13 20  4  0
 13 27  4  0
 14 17  4  0
 14 26  4  0
 16 25  4  0
 17 18  4  0
 20 25  1  0
 23 25  4  0
M  END
$$$$

 Created by Python create_sdf_string function

 29 33  0  0  0  0  0  0  0  0999 V2000
    9.1446   -7.0591   18.3464 C   0  0  0  0  0  0  0  0  0  0  0  0
    9.3133   -4.4859   15.9472 N   0  0  0  0  0  0  0  0  0  0  0  0
    9.3578   -5.8694   17.7201 C   0  0  0  0  0  0  0  0  0  0  0  0
    3.6448   -9.2381   16.2580 N   0  0  0  0  0  0  0  0  0  0  0  0
   10.1074   -4.7967   18.0676 N   0  0  0  0  0  0  0  0  0  0  0  0
    8.7206   -5.6224   16.4909 C   0  0  0  0  0  0  0  0  0  0  0  0
   10.7346   -4.8457   21.6523 C   0  0  0  0  0  0  0  0  0  0  0  0
   10.4191   -3.0465   23.2884 C   0  0  0  0  0  0  0  0  0  0  0  0
   10.2268   -3.4613   25.6628 C   0  0  0  0  0  0  0  0  0  0  0  0
    9.6293   -1.3126   24.7715 C   0  0  0  0  0  0  0  0  0  0  0  0
    5.1021   -8.0621   17.6374 C   0  0  0  0  0  0  0  0  0  0  0  0
    9.7497   -2.1854   25.8654 C   0  0  0  0  0  0  0  0  0  0  0  0
    5.7771   -8.7115   15.4660 C   0  0  0  0  0  0  0  0  0  0  0  0
   10.8189   -3.0444   19.5803 C   0  0  0  0  0  0  0  0  0  0  0  0
   10.1682   -3.9962   16.9328 C   0  0  0  0  0  0  0  0  0  0  0  0
    7.6831   -6.3487   16.0788 C   0  0  0  0  0  0  0  0  0  0  0  0
   10.8859   -2.6201   20.9007 C   0  0  0  0  0  0  0  0  0  0  0  0
   10.6864   -3.4831   21.9527 C   0  0  0  0  0  0  0  0  0  0  0  0
   10.5696   -3.8959   24.3527 C   0  0  0  0  0  0  0  0  0  0  0  0
    6.0758   -8.0598   16.6523 C   0  0  0  0  0  0  0  0  0  0  0  0
    3.9101   -8.6510   17.3790 C   0  0  0  0  0  0  0  0  0  0  0  0
    9.9952   -1.7361   23.4859 C   0  0  0  0  0  0  0  0  0  0  0  0
    9.4251   -1.8028   27.0814 F   0  0  0  0  0  0  0  0  0  0  0  0
    8.0959   -7.8520   17.8955 C   0  0  0  0  0  0  0  0  0  0  0  0
   10.9582   -2.9932   16.7308 N   0  0  0  0  0  0  0  0  0  0  0  0
   10.6172   -5.2526   20.3413 C   0  0  0  0  0  0  0  0  0  0  0  0
    7.2770   -7.4271   16.8387 C   0  0  0  0  0  0  0  0  0  0  0  0
   10.5461   -4.3635   19.3070 C   0  0  0  0  0  0  0  0  0  0  0  0
    4.5760   -9.3030   15.2975 C   0  0  0  0  0  0  0  0  0  0  0  0
  1  3  4  0
  1 24  4  0
  2  6  4  0
  2 15  4  0
  3  5  4  0
  3  6  4  0
  4 21  4  0
  4 29  4  0
  5 15  4  0
  5 28  1  0
  6 16  4  0
  7 18  4  0
  7 26  4  0
  8 18  1  0
  8 19  4  0
  8 22  4  0
  9 12  4  0
  9 19  4  0
 10 12  4  0
 10 22  4  0
 11 20  4  0
 11 21  4  0
 12 23  2  0
 13 20  4  0
 13 29  4  0
 14 17  4  0
 14 28  4  0
 15 25  2  0
 16 27  4  0
 17 18  4  0
 20 27  1  0
 24 27  4  0
 26 28  4  0
M  END
$$$$

 Created by Python create_sdf_string function

 29 36  0  0  0  0  0  0  0  0999 V2000
    9.1575   -7.0176   18.4085 C   0  0  0  0  0  0  0  0  0  0  0  0
    9.3609   -5.8871   17.7187 C   0  0  0  0  0  0  0  0  0  0  0  0
    3.7350   -9.2105   16.2598 N   0  0  0  0  0  0  0  0  0  0  0  0
    9.9988   -4.8519   18.1048 N   0  0  0  0  0  0  0  0  0  0  0  0
    8.6121   -5.6475   16.3097 C   0  0  0  0  0  0  0  0  0  0  0  0
   10.6949   -4.7172   21.5952 C   0  0  0  0  0  0  0  0  0  0  0  0
   10.2290   -3.0584   23.3962 C   0  0  0  0  0  0  0  0  0  0  0  0
   10.3018   -3.3698   25.7357 C   0  0  0  0  0  0  0  0  0  0  0  0
    9.5694   -1.1502   24.7207 C   0  0  0  0  0  0  0  0  0  0  0  0
    5.0319   -8.1478   17.6018 C   0  0  0  0  0  0  0  0  0  0  0  0
    9.8559   -2.0701   25.9109 C   0  0  0  0  0  0  0  0  0  0  0  0
    5.8761   -8.7462   15.4643 C   0  0  0  0  0  0  0  0  0  0  0  0
   10.8465   -3.0841   19.5006 C   0  0  0  0  0  0  0  0  0  0  0  0
   10.0511   -4.1001   16.8515 C   0  0  0  0  0  0  0  0  0  0  0  0
    7.8520   -6.2790   16.0821 C   0  0  0  0  0  0  0  0  0  0  0  0
   10.8435   -2.6471   20.7822 C   0  0  0  0  0  0  0  0  0  0  0  0
   10.5787   -3.4436   22.0254 C   0  0  0  0  0  0  0  0  0  0  0  0
   10.5494   -3.9225   24.2893 C   0  0  0  0  0  0  0  0  0  0  0  0
    6.0896   -8.0737   16.5778 C   0  0  0  0  0  0  0  0  0  0  0  0
    4.0285   -8.7850   17.3694 C   0  0  0  0  0  0  0  0  0  0  0  0
   10.0027   -1.8140   23.4669 C   0  0  0  0  0  0  0  0  0  0  0  0
    9.3896   -1.8488   27.1295 F   0  0  0  0  0  0  0  0  0  0  0  0
    8.0845   -7.7276   17.7402 C   0  0  0  0  0  0  0  0  0  0  0  0
   10.6911   -5.2361   20.4461 C   0  0  0  0  0  0  0  0  0  0  0  0
    7.2123   -7.4674   16.8534 C   0  0  0  0  0  0  0  0  0  0  0  0
   10.6381   -4.3638   19.2431 C   0  0  0  0  0  0  0  0  0  0  0  0
    4.6597   -9.3117   15.2460 C   0  0  0  0  0  0  0  0  0  0  0  0
    9.2835   -4.4022   15.9389 He  0  0  0  0  0  0  0  0  0  0  0  0
   11.0735   -2.9025   16.7450 He  0  0  0  0  0  0  0  0  0  0  0  0
  1  2  4  0
  1 23  4  0
  2  4  4  0
  2  5  4  0
  2 14  1  0
  3 13  3  0
  3 20  4  0
  3 27  4  0
  4 14  4  0
  5  9  3  0
  5 15  4  0
  5 21  3  0
  6 17  4  0
  6 24  4  0
  7 17  1  0
  7 18  4  0
  7 21  4  0
  8 11  4  0
  8 18  4  0
  9 11  4  0
  9 15  1  0
  9 21  4  0
 10 19  4  0
 10 20  4  0
 11 22  2  0
 12 19  4  0
 12 27  4  0
 13 16  4  0
 13 26  4  0
 15 18  3  0
 15 25  4  0
 16 17  4  0
 16 26  2  0
 18 27  1  0
 23 25  4  0
 24 26  4  0
M  END
$$$$

 Created by Python create_sdf_string function

 29 33  0  0  0  0  0  0  0  0999 V2000
    9.0993   -7.0200   18.3342 C   0  0  0  0  0  0  0  0  0  0  0  0
    9.2829   -4.4326   15.9119 N   0  0  0  0  0  0  0  0  0  0  0  0
    9.3231   -5.8450   17.6866 C   0  0  0  0  0  0  0  0  0  0  0  0
    3.7257   -9.3082   16.1962 N   0  0  0  0  0  0  0  0  0  0  0  0
   10.0944   -4.7807   18.0454 N   0  0  0  0  0  0  0  0  0  0  0  0
    8.6878   -5.5948   16.4351 C   0  0  0  0  0  0  0  0  0  0  0  0
   10.6762   -4.8231   21.6511 C   0  0  0  0  0  0  0  0  0  0  0  0
   10.3704   -3.0123   23.2945 C   0  0  0  0  0  0  0  0  0  0  0  0
   10.2694   -3.4027   25.6697 C   0  0  0  0  0  0  0  0  0  0  0  0
    9.6168   -1.2453   24.7821 C   0  0  0  0  0  0  0  0  0  0  0  0
    5.1252   -8.1368   17.6249 C   0  0  0  0  0  0  0  0  0  0  0  0
    9.7799   -2.1208   25.8732 C   0  0  0  0  0  0  0  0  0  0  0  0
    5.8380   -8.7083   15.4100 C   0  0  0  0  0  0  0  0  0  0  0  0
   10.8189   -3.0353   19.5654 C   0  0  0  0  0  0  0  0  0  0  0  0
   10.1752   -3.9766   16.8923 C   0  0  0  0  0  0  0  0  0  0  0  0
    7.6978   -6.3664   16.0248 C   0  0  0  0  0  0  0  0  0  0  0  0
   10.8271   -2.6182   20.8715 C   0  0  0  0  0  0  0  0  0  0  0  0
   10.6229   -3.4660   21.9453 C   0  0  0  0  0  0  0  0  0  0  0  0
   10.5313   -3.8732   24.3552 C   0  0  0  0  0  0  0  0  0  0  0  0
    6.0861   -8.0914   16.6235 C   0  0  0  0  0  0  0  0  0  0  0  0
    3.9477   -8.7571   17.3457 C   0  0  0  0  0  0  0  0  0  0  0  0
    9.9272   -1.7214   23.4681 C   0  0  0  0  0  0  0  0  0  0  0  0
    9.4482   -1.7486   27.0890 F   0  0  0  0  0  0  0  0  0  0  0  0
    8.0639   -7.7846   17.9006 C   0  0  0  0  0  0  0  0  0  0  0  0
   10.9892   -2.9666   16.6769 O   0  0  0  0  0  0  0  0  0  0  0  0
   10.6453   -5.2562   20.3310 C   0  0  0  0  0  0  0  0  0  0  0  0
    7.2689   -7.4306   16.8200 C   0  0  0  0  0  0  0  0  0  0  0  0
   10.5377   -4.3612   19.2902 C   0  0  0  0  0  0  0  0  0  0  0  0
    4.6428   -9.3082   15.2398 C   0  0  0  0  0  0  0  0  0  0  0  0
  1  3  4  0
  1 24  4  0
  2  6  4  0
  2 15  4  0
  3  5  4  0
  3  6  4  0
  4 21  4  0
  4 29  4  0
  5 15  4  0
  5 28  1  0
  6 16  4  0
  7 18  4  0
  7 26  4  0
  8 18  1  0
  8 19  4  0
  8 22  4  0
  9 12  4  0
  9 19  4  0
 10 12  4  0
 10 22  4  0
 11 20  4  0
 11 21  4  0
 12 23  2  0
 13 20  4  0
 13 29  4  0
 14 17  4  0
 14 28  4  0
 15 25  2  0
 16 27  4  0
 17 18  4  0
 20 27  1  0
 24 27  4  0
 26 28  4  0
M  END
$$$$

 Created by Python create_sdf_string function

 29 46  0  0  0  0  0  0  0  0999 V2000
    9.1375   -7.0957   18.2392 C   0  0  0  0  0  0  0  0  0  0  0  0
    9.2304   -4.3277   15.8960 N   0  0  0  0  0  0  0  0  0  0  0  0
    9.2411   -5.9553   17.6387 C   0  0  0  0  0  0  0  0  0  0  0  0
    3.7290   -9.4006   16.2186 N   0  0  0  0  0  0  0  0  0  0  0  0
   10.0338   -4.7654   18.0809 N   0  0  0  0  0  0  0  0  0  0  0  0
    8.5706   -5.6369   16.4111 C   0  0  0  0  0  0  0  0  0  0  0  0
   10.7979   -4.8701   21.7005 C   0  0  0  0  0  0  0  0  0  0  0  0
   10.5240   -3.0207   23.3733 C   0  0  0  0  0  0  0  0  0  0  0  0
   10.2526   -3.5143   25.5975 C   0  0  0  0  0  0  0  0  0  0  0  0
    9.6386   -1.2136   24.7886 C   0  0  0  0  0  0  0  0  0  0  0  0
    5.1044   -8.0913   17.6940 C   0  0  0  0  0  0  0  0  0  0  0  0
    9.6983   -2.0739   25.8075 C   0  0  0  0  0  0  0  0  0  0  0  0
    5.8440   -8.9220   15.3469 C   0  0  0  0  0  0  0  0  0  0  0  0
   10.7679   -2.9899   19.5481 C   0  0  0  0  0  0  0  0  0  0  0  0
   10.2274   -3.9155   16.9427 P   0  0  0  0  0  0  0  0  0  0  0  0
    7.7508   -6.4148   15.8725 C   0  0  0  0  0  0  0  0  0  0  0  0
   10.9799   -2.6500   20.9698 C   0  0  0  0  0  0  0  0  0  0  0  0
   10.5818   -3.4214   21.9960 C   0  0  0  0  0  0  0  0  0  0  0  0
   10.4702   -3.8893   24.3581 C   0  0  0  0  0  0  0  0  0  0  0  0
    6.1795   -8.0580   16.6267 C   0  0  0  0  0  0  0  0  0  0  0  0
    3.8304   -8.8479   17.2126 C   0  0  0  0  0  0  0  0  0  0  0  0
    9.9763   -1.6604   23.5454 C   0  0  0  0  0  0  0  0  0  0  0  0
    9.4520   -1.7490   27.1409 F   0  0  0  0  0  0  0  0  0  0  0  0
    8.1455   -7.8241   17.8528 C   0  0  0  0  0  0  0  0  0  0  0  0
   10.8166   -2.9425   16.7603 O   0  0  0  0  0  0  0  0  0  0  0  0
   10.7020   -5.2000   20.3269 C   0  0  0  0  0  0  0  0  0  0  0  0
    7.2865   -7.5133   16.7598 C   0  0  0  0  0  0  0  0  0  0  0  0
   10.5041   -4.3936   19.2547 C   0  0  0  0  0  0  0  0  0  0  0  0
    4.6142   -9.3327   15.2339 C   0  0  0  0  0  0  0  0  0  0  0  0
  1  3  4  0
  1 24  4  0
  2  6  4  0
  2 15  4  0
  3  4  3  0
  3  5  4  0
  3  6  4  0
  3 10  2  0
  3 25  3  0
  4 18  2  0
  4 21  4  0
  4 27  4  0
  4 29  4  0
  5 14  2  0
  5 15  4  0
  5 28  1  0
  6 14  4  0
  6 16  4  0
  6 24  2  0
  7 18  4  0
  7 24  2  0
  7 26  4  0
  8 18  1  0
  8 19  4  0
  8 22  4  0
  9 12  2  0
  9 18  3  0
  9 19  4  0
  9 21  2  0
 10 12  4  0
 10 22  4  0
 11 20  4  0
 11 21  4  0
 12 23  2  0
 13 16  4  0
 13 20  4  0
 13 29  4  0
 14 17  4  0
 14 28  4  0
 15 25  2  0
 16 27  4  0
 17 18  4  0
 20 27  1  0
 23 24  4  0
 24 27  4  0
 26 28  4  0
M  END
$$$$

 Created by Python create_sdf_string function

 29 33  0  0  0  0  0  0  0  0999 V2000
    9.1078   -7.0282   18.3015 C   0  0  0  0  0  0  0  0  0  0  0  0
    9.2196   -4.4378   15.9343 N   0  0  0  0  0  0  0  0  0  0  0  0
    9.3098   -5.8706   17.6849 C   0  0  0  0  0  0  0  0  0  0  0  0
    3.6856   -9.3706   16.1621 N   0  0  0  0  0  0  0  0  0  0  0  0
   10.0438   -4.7606   18.0593 N   0  0  0  0  0  0  0  0  0  0  0  0
    8.6839   -5.6170   16.4255 C   0  0  0  0  0  0  0  0  0  0  0  0
   10.7298   -4.8369   21.6538 C   0  0  0  0  0  0  0  0  0  0  0  0
   10.4078   -3.0248   23.2874 C   0  0  0  0  0  0  0  0  0  0  0  0
   10.1871   -3.4516   25.6434 C   0  0  0  0  0  0  0  0  0  0  0  0
    9.6541   -1.2499   24.7735 C   0  0  0  0  0  0  0  0  0  0  0  0
    5.1093   -8.1660   17.5641 C   0  0  0  0  0  0  0  0  0  0  0  0
    9.7540   -2.1418   25.8496 C   0  0  0  0  0  0  0  0  0  0  0  0
    5.8401   -8.7915   15.3865 C   0  0  0  0  0  0  0  0  0  0  0  0
   10.7928   -3.0195   19.5907 C   0  0  0  0  0  0  0  0  0  0  0  0
   10.0911   -3.9420   16.9319 C   0  0  0  0  0  0  0  0  0  0  0  0
    7.7034   -6.4107   15.9920 C   0  0  0  0  0  0  0  0  0  0  0  0
   10.8759   -2.6173   20.8974 C   0  0  0  0  0  0  0  0  0  0  0  0
   10.6858   -3.4714   21.9614 C   0  0  0  0  0  0  0  0  0  0  0  0
   10.5244   -3.8990   24.3372 C   0  0  0  0  0  0  0  0  0  0  0  0
    6.1022   -8.1436   16.5758 C   0  0  0  0  0  0  0  0  0  0  0  0
    3.9066   -8.7792   17.3111 C   0  0  0  0  0  0  0  0  0  0  0  0
   10.0220   -1.6916   23.4770 C   0  0  0  0  0  0  0  0  0  0  0  0
    9.4413   -1.7466   27.0582 F   0  0  0  0  0  0  0  0  0  0  0  0
    8.1102   -7.8547   17.8522 C   0  0  0  0  0  0  0  0  0  0  0  0
   10.8115   -2.9784   16.7386 O   0  0  0  0  0  0  0  0  0  0  0  0
   10.6280   -5.2535   20.3510 C   0  0  0  0  0  0  0  0  0  0  0  0
    7.2947   -7.4848   16.7808 C   0  0  0  0  0  0  0  0  0  0  0  0
   10.5052   -4.3507   19.3040 C   0  0  0  0  0  0  0  0  0  0  0  0
    4.6420   -9.4051   15.2075 C   0  0  0  0  0  0  0  0  0  0  0  0
  1  3  4  0
  1 24  4  0
  2  6  4  0
  2 15  4  0
  3  5  4  0
  3  6  4  0
  4 21  4  0
  4 29  4  0
  5 15  4  0
  5 28  1  0
  6 16  4  0
  7 18  4  0
  7 26  4  0
  8 18  1  0
  8 19  4  0
  8 22  4  0
  9 12  4  0
  9 19  4  0
 10 12  4  0
 10 22  4  0
 11 20  4  0
 11 21  4  0
 12 23  1  0
 13 20  4  0
 13 29  4  0
 14 17  4  0
 14 28  4  0
 15 25  2  0
 16 27  4  0
 17 18  4  0
 20 27  1  0
 24 27  4  0
 26 28  4  0
M  END
$$$$

 Created by Python create_sdf_string function

 29 41  0  0  0  0  0  0  0  0999 V2000
    9.0856   -7.0276   18.3289 C   0  0  0  0  0  0  0  0  0  0  0  0
    9.2826   -4.3660   16.0125 N   0  0  0  0  0  0  0  0  0  0  0  0
    9.2588   -5.7914   17.7087 C   0  0  0  0  0  0  0  0  0  0  0  0
    3.8171   -9.3868   16.0751 N   0  0  0  0  0  0  0  0  0  0  0  0
   10.0329   -4.7339   18.1889 N   0  0  0  0  0  0  0  0  0  0  0  0
    8.5841   -5.5571   16.3996 C   0  0  0  0  0  0  0  0  0  0  0  0
   10.6859   -4.8993   21.7704 C   0  0  0  0  0  0  0  0  0  0  0  0
   10.3992   -3.0255   23.2326 C   0  0  0  0  0  0  0  0  0  0  0  0
   10.2786   -3.4163   25.6720 C   0  0  0  0  0  0  0  0  0  0  0  0
    9.6015   -1.2098   24.7236 C   0  0  0  0  0  0  0  0  0  0  0  0
    5.0735   -8.1313   17.4678 C   0  0  0  0  0  0  0  0  0  0  0  0
    9.8439   -2.0889   25.8822 C   0  0  0  0  0  0  0  0  0  0  0  0
    5.8030   -8.7338   15.3880 C   0  0  0  0  0  0  0  0  0  0  0  0
   10.7004   -3.0537   19.6623 C   0  0  0  0  0  0  0  0  0  0  0  0
   10.0299   -3.9619   16.9977 C   0  0  0  0  0  0  0  0  0  0  0  0
    7.6600   -6.3543   16.0366 C   0  0  0  0  0  0  0  0  0  0  0  0
   10.8890   -2.5468   20.7724 C   0  0  0  0  0  0  0  0  0  0  0  0
   10.7039   -3.5791   21.9056 C   0  0  0  0  0  0  0  0  0  0  0  0
   10.5011   -3.9259   24.4320 C   0  0  0  0  0  0  0  0  0  0  0  0
    6.1530   -8.2113   16.5174 C   0  0  0  0  0  0  0  0  0  0  0  0
    3.9626   -8.7376   17.3155 C   0  0  0  0  0  0  0  0  0  0  0  0
   10.0661   -1.6550   23.4678 C   0  0  0  0  0  0  0  0  0  0  0  0
    9.4043   -1.7240   27.0050 F   0  0  0  0  0  0  0  0  0  0  0  0
    8.1159   -7.8032   17.8073 C   0  0  0  0  0  0  0  0  0  0  0  0
   10.8093   -3.0065   16.8112 O   0  0  0  0  0  0  0  0  0  0  0  0
   10.5971   -5.3190   20.5149 C   0  0  0  0  0  0  0  0  0  0  0  0
    7.3561   -7.6142   16.8923 C   0  0  0  0  0  0  0  0  0  0  0  0
   10.5410   -4.3459   19.3720 C   0  0  0  0  0  0  0  0  0  0  0  0
    4.7284   -9.3915   15.1665 C   0  0  0  0  0  0  0  0  0  0  0  0
  1  3  4  0
  1 24  4  0
  2  6  4  0
  2  7  2  0
  2 15  4  0
  3  5  4  0
  3  6  4  0
  4 21  4  0
  4 29  1  0
  5  8  3  0
  5 15  4  0
  5 28  1  0
  6 16  4  0
  7 12  1  0
  7 16  3  0
  7 17  4  0
  7 18  4  0
  7 26  4  0
  8 18  1  0
  8 22  4  0
  8 23  4  0
  9 12  4  0
  9 19  4  0
  9 21  3  0
 10 12  4  0
 10 13  1  0
 10 22  4  0
 10 25  4  0
 11 20  4  0
 11 21  4  0
 12 23  1  0
 13 20  4  0
 13 29  4  0
 14 17  4  0
 14 28  4  0
 15 25  2  0
 16 27  4  0
 17 18  4  0
 20 27  1  0
 24 27  4  0
 26 28  4  0
M  END
$$$$

 Created by Python create_sdf_string function

 29 33  0  0  0  0  0  0  0  0999 V2000
    9.0732   -7.0272   18.3468 C   0  0  0  0  0  0  0  0  0  0  0  0
    9.2001   -4.4181   16.0050 N   0  0  0  0  0  0  0  0  0  0  0  0
    9.2740   -5.8496   17.7529 C   0  0  0  0  0  0  0  0  0  0  0  0
    3.7343   -9.3783   16.1144 N   0  0  0  0  0  0  0  0  0  0  0  0
   10.0055   -4.7603   18.1256 N   0  0  0  0  0  0  0  0  0  0  0  0
    8.6465   -5.5891   16.4925 C   0  0  0  0  0  0  0  0  0  0  0  0
   10.6945   -4.8590   21.6994 C   0  0  0  0  0  0  0  0  0  0  0  0
   10.4175   -3.0233   23.3009 C   0  0  0  0  0  0  0  0  0  0  0  0
   10.2369   -3.3978   25.6625 C   0  0  0  0  0  0  0  0  0  0  0  0
    9.6741   -1.2416   24.7614 C   0  0  0  0  0  0  0  0  0  0  0  0
    5.1107   -8.1642   17.5183 C   0  0  0  0  0  0  0  0  0  0  0  0
    9.7904   -2.1016   25.8287 C   0  0  0  0  0  0  0  0  0  0  0  0
    5.8573   -8.7569   15.3633 C   0  0  0  0  0  0  0  0  0  0  0  0
   10.7682   -3.0349   19.5855 C   0  0  0  0  0  0  0  0  0  0  0  0
   10.0645   -3.9550   16.9767 C   0  0  0  0  0  0  0  0  0  0  0  0
    7.6811   -6.3853   16.0400 C   0  0  0  0  0  0  0  0  0  0  0  0
   10.8562   -2.6157   20.8908 C   0  0  0  0  0  0  0  0  0  0  0  0
   10.6584   -3.4788   21.9557 C   0  0  0  0  0  0  0  0  0  0  0  0
   10.5394   -3.8944   24.3742 C   0  0  0  0  0  0  0  0  0  0  0  0
    6.0971   -8.1271   16.5631 C   0  0  0  0  0  0  0  0  0  0  0  0
    3.9379   -8.7741   17.2633 C   0  0  0  0  0  0  0  0  0  0  0  0
   10.0287   -1.6878   23.4664 C   0  0  0  0  0  0  0  0  0  0  0  0
    9.4491   -1.6882   27.0214 F   0  0  0  0  0  0  0  0  0  0  0  0
    8.0954   -7.8312   17.8734 C   0  0  0  0  0  0  0  0  0  0  0  0
   10.7867   -2.9873   16.7741 O   0  0  0  0  0  0  0  0  0  0  0  0
   10.5759   -5.2899   20.3937 C   0  0  0  0  0  0  0  0  0  0  0  0
    7.2801   -7.4631   16.8000 C   0  0  0  0  0  0  0  0  0  0  0  0
   10.4585   -4.3638   19.3722 C   0  0  0  0  0  0  0  0  0  0  0  0
    4.6827   -9.3899   15.1639 C   0  0  0  0  0  0  0  0  0  0  0  0
  1  3  4  0
  1 24  4  0
  2  6  4  0
  2 15  4  0
  3  5  4  0
  3  6  4  0
  4 21  4  0
  4 29  4  0
  5 15  4  0
  5 28  1  0
  6 16  4  0
  7 18  4  0
  7 26  4  0
  8 18  1  0
  8 19  4  0
  8 22  4  0
  9 12  4  0
  9 19  4  0
 10 12  4  0
 10 22  4  0
 11 20  4  0
 11 21  4  0
 12 23  1  0
 13 20  4  0
 13 29  4  0
 14 17  4  0
 14 28  4  0
 15 25  2  0
 16 27  4  0
 17 18  4  0
 20 27  1  0
 24 27  4  0
 26 28  4  0
M  END
$$$$

 Created by Python create_sdf_string function

 29 40  0  0  0  0  0  0  0  0999 V2000
    9.0325   -7.0432   18.3068 C   0  0  0  0  0  0  0  0  0  0  0  0
    9.1250   -4.4131   15.8980 N   0  0  0  0  0  0  0  0  0  0  0  0
    9.3176   -5.8556   17.6288 C   0  0  0  0  0  0  0  0  0  0  0  0
    3.7376   -9.4021   16.1161 N   0  0  0  0  0  0  0  0  0  0  0  0
   10.0297   -4.8100   18.0665 N   0  0  0  0  0  0  0  0  0  0  0  0
    8.5608   -5.6198   16.5321 C   0  0  0  0  0  0  0  0  0  0  0  0
   10.7015   -4.7781   21.6795 C   0  0  0  0  0  0  0  0  0  0  0  0
   10.4780   -2.8552   23.2283 C   0  0  0  0  0  0  0  0  0  0  0  0
   10.3450   -3.3609   25.6334 C   0  0  0  0  0  0  0  0  0  0  0  0
    9.5905   -1.1864   24.8115 C   0  0  0  0  0  0  0  0  0  0  0  0
    5.0944   -8.2388   17.6670 C   0  0  0  0  0  0  0  0  0  0  0  0
    9.7344   -2.0397   25.8626 C   0  0  0  0  0  0  0  0  0  0  0  0
    5.9547   -8.8994   15.3871 C   0  0  0  0  0  0  0  0  0  0  0  0
   10.6719   -3.1684   19.6060 C   0  0  0  0  0  0  0  0  0  0  0  0
   10.1218   -3.9742   16.9490 C   0  0  0  0  0  0  0  0  0  0  0  0
    7.5403   -6.3160   16.0738 C   0  0  0  0  0  0  0  0  0  0  0  0
   10.8058   -2.6929   20.8937 C   0  0  0  0  0  0  0  0  0  0  0  0
   10.6847   -3.4663   21.8943 C   0  0  0  0  0  0  0  0  0  0  0  0
   10.4610   -3.8491   24.2765 C   0  0  0  0  0  0  0  0  0  0  0  0
    6.1018   -8.0193   16.4453 C   0  0  0  0  0  0  0  0  0  0  0  0
    3.9477   -8.8706   17.1924 C   0  0  0  0  0  0  0  0  0  0  0  0
   10.0148   -1.5274   23.5184 C   0  0  0  0  0  0  0  0  0  0  0  0
    9.5151   -1.6395   27.0851 F   0  0  0  0  0  0  0  0  0  0  0  0
    8.0383   -7.8700   17.8359 C   0  0  0  0  0  0  0  0  0  0  0  0
   10.7722   -3.0392   16.6602 O   0  0  0  0  0  0  0  0  0  0  0  0
   10.4942   -5.2776   20.4301 C   0  0  0  0  0  0  0  0  0  0  0  0
    7.2876   -7.4891   16.7262 C   0  0  0  0  0  0  0  0  0  0  0  0
   10.3393   -4.4605   19.4150 C   0  0  0  0  0  0  0  0  0  0  0  0
    4.6579   -9.4042   15.1286 C   0  0  0  0  0  0  0  0  0  0  0  0
  1  3  4  0
  1 24  4  0
  1 26  1  0
  2  6  4  0
  2 12  4  0
  2 15  4  0
  3  5  4  0
  3  6  4  0
  4 21  4  0
  4 29  4  0
  5 15  4  0
  5 27  3  0
  5 28  1  0
  6 16  4  0
  6 22  4  0
  7 18  4  0
  7 26  4  0
  8 18  1  0
  8 19  4  0
  8 22  4  0
  9 12  4  0
  9 19  4  0
 10 12  4  0
 10 22  4  0
 11 20  4  0
 12 23  1  0
 13 20  4  0
 13 29  4  0
 14 17  4  0
 14 28  4  0
 15 25  2  0
 16 27  4  0
 16 28  3  0
 17 18  4  0
 17 27  4  0
 19 20  2  0
 20 27  1  0
 24 27  4  0
 25 29  1  0
 26 28  4  0
M  END
$$$$

 Created by Python create_sdf_string function

 29 33  0  0  0  0  0  0  0  0999 V2000
    9.0462   -7.0672   18.3040 C   0  0  0  0  0  0  0  0  0  0  0  0
    9.1493   -4.4453   15.9557 N   0  0  0  0  0  0  0  0  0  0  0  0
    9.2496   -5.8770   17.7173 C   0  0  0  0  0  0  0  0  0  0  0  0
    3.7194   -9.4155   16.0713 N   0  0  0  0  0  0  0  0  0  0  0  0
    9.9873   -4.7866   18.0718 N   0  0  0  0  0  0  0  0  0  0  0  0
    8.5987   -5.5967   16.4821 C   0  0  0  0  0  0  0  0  0  0  0  0
   10.6554   -4.8056   21.6701 C   0  0  0  0  0  0  0  0  0  0  0  0
   10.4079   -2.9383   23.2521 C   0  0  0  0  0  0  0  0  0  0  0  0
   10.2666   -3.3482   25.6215 C   0  0  0  0  0  0  0  0  0  0  0  0
    9.6405   -1.1735   24.7572 C   0  0  0  0  0  0  0  0  0  0  0  0
    5.1029   -8.2473   17.5310 C   0  0  0  0  0  0  0  0  0  0  0  0
    9.7881   -2.0571   25.8373 C   0  0  0  0  0  0  0  0  0  0  0  0
    5.8775   -8.8194   15.3613 C   0  0  0  0  0  0  0  0  0  0  0  0
   10.6948   -3.0812   19.5588 C   0  0  0  0  0  0  0  0  0  0  0  0
   10.0544   -3.9810   16.9123 C   0  0  0  0  0  0  0  0  0  0  0  0
    7.5965   -6.3528   16.0453 C   0  0  0  0  0  0  0  0  0  0  0  0
   10.8145   -2.6150   20.8469 C   0  0  0  0  0  0  0  0  0  0  0  0
   10.6360   -3.4327   21.9259 C   0  0  0  0  0  0  0  0  0  0  0  0
   10.5422   -3.8100   24.3169 C   0  0  0  0  0  0  0  0  0  0  0  0
    6.0799   -8.1844   16.5521 C   0  0  0  0  0  0  0  0  0  0  0  0
    3.9271   -8.8582   17.2395 C   0  0  0  0  0  0  0  0  0  0  0  0
   10.0133   -1.5911   23.4733 C   0  0  0  0  0  0  0  0  0  0  0  0
    9.5021   -1.6672   27.0296 F   0  0  0  0  0  0  0  0  0  0  0  0
    8.0417   -7.8548   17.8510 C   0  0  0  0  0  0  0  0  0  0  0  0
   10.7746   -3.0577   16.7083 O   0  0  0  0  0  0  0  0  0  0  0  0
   10.4910   -5.2776   20.4026 C   0  0  0  0  0  0  0  0  0  0  0  0
    7.2275   -7.4603   16.7801 C   0  0  0  0  0  0  0  0  0  0  0  0
   10.4030   -4.4030   19.3277 C   0  0  0  0  0  0  0  0  0  0  0  0
    4.6855   -9.4285   15.1231 C   0  0  0  0  0  0  0  0  0  0  0  0
  1  3  4  0
  1 24  4  0
  2  6  4  0
  2 15  4  0
  3  5  4  0
  3  6  4  0
  4 21  4  0
  4 29  4  0
  5 15  4  0
  5 28  1  0
  6 16  4  0
  7 18  4  0
  7 26  4  0
  8 18  1  0
  8 19  4  0
  8 22  4  0
  9 12  4  0
  9 19  4  0
 10 12  4  0
 10 22  4  0
 11 20  4  0
 11 21  4  0
 12 23  1  0
 13 20  4  0
 13 29  4  0
 14 17  4  0
 14 28  4  0
 15 25  2  0
 16 27  4  0
 17 18  4  0
 20 27  1  0
 24 27  4  0
 26 28  4  0
M  END
$$$$

 Created by Python create_sdf_string function

 29 37  0  0  0  0  0  0  0  0999 V2000
    9.0893   -7.1075   18.2542 C   0  0  0  0  0  0  0  0  0  0  0  0
    9.2064   -4.4420   15.9364 N   0  0  0  0  0  0  0  0  0  0  0  0
    9.2616   -5.8178   17.6604 C   0  0  0  0  0  0  0  0  0  0  0  0
    3.6976   -9.4048   16.0763 N   0  0  0  0  0  0  0  0  0  0  0  0
   10.0242   -4.8780   18.0729 N   0  0  0  0  0  0  0  0  0  0  0  0
    8.6411   -5.6137   16.4667 C   0  0  0  0  0  0  0  0  0  0  0  0
   10.5606   -4.8868   21.8007 C   0  0  0  0  0  0  0  0  0  0  0  0
   10.5245   -2.9638   23.3969 N   0  0  0  0  0  0  0  0  0  0  0  0
   10.2812   -3.4237   25.6743 C   0  0  0  0  0  0  0  0  0  0  0  0
    9.6010   -1.2440   24.7720 C   0  0  0  0  0  0  0  0  0  0  0  0
    4.9959   -8.2460   17.5893 C   0  0  0  0  0  0  0  0  0  0  0  0
    9.7382   -1.9901   25.8170 C   0  0  0  0  0  0  0  0  0  0  0  0
    5.9099   -8.8015   15.4734 C   0  0  0  0  0  0  0  0  0  0  0  0
   10.7209   -3.1005   19.5743 N   0  0  0  0  0  0  0  0  0  0  0  0
   10.1329   -4.0274   16.8222 C   0  0  0  0  0  0  0  0  0  0  0  0
    7.5282   -6.4564   15.9977 C   0  0  0  0  0  0  0  0  0  0  0  0
   10.8506   -2.6262   20.8862 C   0  0  0  0  0  0  0  0  0  0  0  0
   10.7385   -3.4058   21.9024 C   0  0  0  0  0  0  0  0  0  0  0  0
   10.4442   -3.8448   24.3192 C   0  0  0  0  0  0  0  0  0  0  0  0
    6.0647   -8.1886   16.5282 C   0  0  0  0  0  0  0  0  0  0  0  0
    3.9073   -8.8968   17.2335 C   0  0  0  0  0  0  0  0  0  0  0  0
   10.1301   -1.5991   23.3982 C   0  0  0  0  0  0  0  0  0  0  0  0
    9.4671   -1.6635   27.0040 F   0  0  0  0  0  0  0  0  0  0  0  0
    8.0483   -7.8370   17.8959 C   0  0  0  0  0  0  0  0  0  0  0  0
   10.7802   -3.1422   16.6485 O   0  0  0  0  0  0  0  0  0  0  0  0
   10.4525   -5.3312   20.3942 C   0  0  0  0  0  0  0  0  0  0  0  0
    7.1836   -7.3861   16.6791 C   0  0  0  0  0  0  0  0  0  0  0  0
   10.3000   -4.4316   19.3470 C   0  0  0  0  0  0  0  0  0  0  0  0
    4.6738   -9.5105   15.1656 C   0  0  0  0  0  0  0  0  0  0  0  0
  1  3  4  0
  1 24  4  0
  2  6  4  0
  2 11  2  0
  2 15  4  0
  3  6  4  0
  3 16  1  0
  3 23  1  0
  4 13  2  0
  4 21  4  0
  4 29  4  0
  5 15  4  0
  5 28  1  0
  6 16  4  0
  7 18  4  0
  7 26  4  0
  8 18  1  0
  8 19  4  0
  8 22  4  0
 10 12  4  0
 10 22  4  0
 11 20  4  0
 11 21  4  0
 12 23  1  0
 13 15  1  0
 13 20  4  0
 13 29  4  0
 14 17  4  0
 14 28  4  0
 15 25  2  0
 15 26  2  0
 16 27  4  0
 17 18  4  0
 18 19  3  0
 20 27  1  0
 24 27  4  0
 26 28  4  0
M  END
$$$$

 Created by Python create_sdf_string function

 29 33  0  0  0  0  0  0  0  0999 V2000
    9.0337   -7.0691   18.3054 C   0  0  0  0  0  0  0  0  0  0  0  0
    9.1907   -4.5065   15.9211 N   0  0  0  0  0  0  0  0  0  0  0  0
    9.2460   -5.8980   17.6863 C   0  0  0  0  0  0  0  0  0  0  0  0
    3.6918   -9.4571   16.0762 N   0  0  0  0  0  0  0  0  0  0  0  0
    9.9825   -4.7932   18.0594 N   0  0  0  0  0  0  0  0  0  0  0  0
    8.6149   -5.6384   16.4465 C   0  0  0  0  0  0  0  0  0  0  0  0
   10.5947   -4.8603   21.7254 C   0  0  0  0  0  0  0  0  0  0  0  0
   10.4217   -2.9863   23.2627 C   0  0  0  0  0  0  0  0  0  0  0  0
   10.2170   -3.3750   25.6452 C   0  0  0  0  0  0  0  0  0  0  0  0
    9.6743   -1.1976   24.7316 C   0  0  0  0  0  0  0  0  0  0  0  0
    5.0286   -8.2500   17.5405 C   0  0  0  0  0  0  0  0  0  0  0  0
    9.7692   -2.0586   25.8031 C   0  0  0  0  0  0  0  0  0  0  0  0
    5.8403   -8.8256   15.3939 C   0  0  0  0  0  0  0  0  0  0  0  0
   10.7261   -3.0941   19.5423 N   0  0  0  0  0  0  0  0  0  0  0  0
   10.0591   -4.0348   16.8955 C   0  0  0  0  0  0  0  0  0  0  0  0
    7.6018   -6.4066   16.0337 C   0  0  0  0  0  0  0  0  0  0  0  0
   10.8580   -2.6474   20.8329 C   0  0  0  0  0  0  0  0  0  0  0  0
   10.6333   -3.4651   21.9482 C   0  0  0  0  0  0  0  0  0  0  0  0
   10.5238   -3.8513   24.3603 C   0  0  0  0  0  0  0  0  0  0  0  0
    6.0277   -8.1794   16.5858 C   0  0  0  0  0  0  0  0  0  0  0  0
    3.8642   -8.8856   17.2390 C   0  0  0  0  0  0  0  0  0  0  0  0
   10.0941   -1.6283   23.4382 C   0  0  0  0  0  0  0  0  0  0  0  0
    9.4499   -1.6454   26.9891 F   0  0  0  0  0  0  0  0  0  0  0  0
    8.0078   -7.8528   17.8811 C   0  0  0  0  0  0  0  0  0  0  0  0
   10.8158   -3.1090   16.6918 O   0  0  0  0  0  0  0  0  0  0  0  0
   10.4234   -5.3161   20.4025 C   0  0  0  0  0  0  0  0  0  0  0  0
    7.2047   -7.4796   16.8141 C   0  0  0  0  0  0  0  0  0  0  0  0
   10.3899   -4.4110   19.3153 C   0  0  0  0  0  0  0  0  0  0  0  0
    4.6735   -9.4706   15.1597 C   0  0  0  0  0  0  0  0  0  0  0  0
  1  3  4  0
  1 24  4  0
  2  6  4  0
  2 15  4  0
  3  5  4  0
  3  6  4  0
  4 21  4  0
  4 29  4  0
  5 15  4  0
  5 28  1  0
  6 16  4  0
  7 18  4  0
  7 26  4  0
  8 18  1  0
  8 19  4  0
  8 22  4  0
  9 12  4  0
  9 19  4  0
 10 12  4  0
 10 22  4  0
 11 20  4  0
 11 21  4  0
 12 23  1  0
 13 20  4  0
 13 29  4  0
 14 17  4  0
 14 28  4  0
 15 25  2  0
 16 27  4  0
 17 18  4  0
 20 27  1  0
 24 27  4  0
 26 28  4  0
M  END
$$$$

 Created by Python create_sdf_string function

 29 41  0  0  0  0  0  0  0  0999 V2000
    9.1099   -7.1120   18.3075 C   0  0  0  0  0  0  0  0  0  0  0  0
    9.1383   -4.4648   15.8663 N   0  0  0  0  0  0  0  0  0  0  0  0
    9.1360   -5.8241   17.6359 C   0  0  0  0  0  0  0  0  0  0  0  0
    3.6705   -9.4727   16.1427 N   0  0  0  0  0  0  0  0  0  0  0  0
   10.0068   -4.8121   18.0906 N   0  0  0  0  0  0  0  0  0  0  0  0
    8.7055   -5.5996   16.4599 C   0  0  0  0  0  0  0  0  0  0  0  0
   10.6756   -4.8710   21.6732 C   0  0  0  0  0  0  0  0  0  0  0  0
   10.4648   -3.0593   23.2456 C   0  0  0  0  0  0  0  0  0  0  0  0
   10.1500   -3.3176   25.6085 C   0  0  0  0  0  0  0  0  0  0  0  0
    9.6845   -1.1712   24.7235 C   0  0  0  0  0  0  0  0  0  0  0  0
    5.0273   -8.2677   17.5708 C   0  0  0  0  0  0  0  0  0  0  0  0
    9.7612   -2.0665   25.8233 C   0  0  0  0  0  0  0  0  0  0  0  0
    5.8177   -8.8018   15.3306 C   0  0  0  0  0  0  0  0  0  0  0  0
   10.6359   -3.0887   19.6053 N   0  0  0  0  0  0  0  0  0  0  0  0
   10.0473   -4.1133   16.9264 C   0  0  0  0  0  0  0  0  0  0  0  0
    7.5677   -6.2968   16.0688 C   0  0  0  0  0  0  0  0  0  0  0  0
   10.8559   -2.7181   20.8089 C   0  0  0  0  0  0  0  0  0  0  0  0
   10.5360   -3.8352   24.3099 C   0  0  0  0  0  0  0  0  0  0  0  0
    6.0178   -8.1838   16.5304 C   0  0  0  0  0  0  0  0  0  0  0  0
    3.8716   -8.9058   17.1936 C   0  0  0  0  0  0  0  0  0  0  0  0
   10.0559   -1.7386   23.3762 C   0  0  0  0  0  0  0  0  0  0  0  0
    9.4310   -1.6945   26.9433 F   0  0  0  0  0  0  0  0  0  0  0  0
    7.9270   -7.8872   17.8290 C   0  0  0  0  0  0  0  0  0  0  0  0
   10.8108   -3.0815   16.7123 O   0  0  0  0  0  0  0  0  0  0  0  0
   10.3453   -5.2806   20.4474 C   0  0  0  0  0  0  0  0  0  0  0  0
    7.2121   -7.5411   16.7605 C   0  0  0  0  0  0  0  0  0  0  0  0
   10.4607   -4.3214   19.3857 C   0  0  0  0  0  0  0  0  0  0  0  0
    4.6679   -9.4714   15.2320 C   0  0  0  0  0  0  0  0  0  0  0  0
   10.6640   -3.5337   21.9040 He  0  0  0  0  0  0  0  0  0  0  0  0
  1  3  4  0
  1 23  4  0
  2  6  4  0
  2 15  4  0
  3  5  4  0
  3  6  4  0
  3 19  4  0
  3 27  1  0
  4  5  1  0
  4  8  4  0
  4 20  4  0
  4 28  4  0
  5 15  4  0
  5 24  1  0
  5 27  1  0
  6 16  4  0
  7 25  4  0
  8 18  4  0
  8 21  4  0
  9 12  4  0
  9 18  4  0
 10 12  4  0
 10 14  4  0
 10 21  4  0
 11 19  4  0
 11 20  4  0
 12 22  1  0
 12 23  4  0
 12 27  4  0
 13 19  4  0
 13 28  4  0
 14 17  4  0
 14 27  4  0
 15 24  2  0
 15 27  3  0
 16 26  4  0
 17 27  4  0
 19 26  1  0
 23 26  4  0
 25 27  4  0
 26 27  1  0
M  END
$$$$

 Created by Python create_sdf_string function

 29 33  0  0  0  0  0  0  0  0999 V2000
    9.0023   -7.1008   18.3195 C   0  0  0  0  0  0  0  0  0  0  0  0
    9.1785   -4.4975   15.9251 N   0  0  0  0  0  0  0  0  0  0  0  0
    9.2209   -5.9058   17.6976 C   0  0  0  0  0  0  0  0  0  0  0  0
    3.6767   -9.4815   16.1106 N   0  0  0  0  0  0  0  0  0  0  0  0
    9.9556   -4.7845   18.0836 N   0  0  0  0  0  0  0  0  0  0  0  0
    8.5955   -5.6300   16.4509 C   0  0  0  0  0  0  0  0  0  0  0  0
   10.6242   -4.8780   21.6799 C   0  0  0  0  0  0  0  0  0  0  0  0
   10.4264   -3.0248   23.2414 C   0  0  0  0  0  0  0  0  0  0  0  0
   10.1868   -3.3819   25.5851 C   0  0  0  0  0  0  0  0  0  0  0  0
    9.7052   -1.2162   24.6679 C   0  0  0  0  0  0  0  0  0  0  0  0
    5.0272   -8.2790   17.5167 C   0  0  0  0  0  0  0  0  0  0  0  0
    9.7690   -2.0766   25.7570 C   0  0  0  0  0  0  0  0  0  0  0  0
    5.7888   -8.8013   15.3614 C   0  0  0  0  0  0  0  0  0  0  0  0
   10.6987   -3.0947   19.5337 N   0  0  0  0  0  0  0  0  0  0  0  0
   10.0335   -4.0227   16.9022 C   0  0  0  0  0  0  0  0  0  0  0  0
    7.5778   -6.3901   16.0280 C   0  0  0  0  0  0  0  0  0  0  0  0
   10.8379   -2.6985   20.8268 C   0  0  0  0  0  0  0  0  0  0  0  0
   10.6437   -3.5165   21.9062 C   0  0  0  0  0  0  0  0  0  0  0  0
   10.5367   -3.8674   24.3241 C   0  0  0  0  0  0  0  0  0  0  0  0
    6.0032   -8.1877   16.5541 C   0  0  0  0  0  0  0  0  0  0  0  0
    3.8707   -8.8980   17.2578 C   0  0  0  0  0  0  0  0  0  0  0  0
   10.0635   -1.6999   23.3897 C   0  0  0  0  0  0  0  0  0  0  0  0
    9.4317   -1.6656   26.9451 F   0  0  0  0  0  0  0  0  0  0  0  0
    7.9689   -7.8618   17.8614 C   0  0  0  0  0  0  0  0  0  0  0  0
   10.7781   -3.1013   16.7372 O   0  0  0  0  0  0  0  0  0  0  0  0
   10.4192   -5.3263   20.3958 C   0  0  0  0  0  0  0  0  0  0  0  0
    7.1755   -7.4769   16.7830 C   0  0  0  0  0  0  0  0  0  0  0  0
   10.3534   -4.3897   19.3441 C   0  0  0  0  0  0  0  0  0  0  0  0
    4.6348   -9.4707   15.1681 C   0  0  0  0  0  0  0  0  0  0  0  0
  1  3  4  0
  1 24  4  0
  2  6  4  0
  2 15  4  0
  3  5  4  0
  3  6  4  0
  4 21  4  0
  4 29  4  0
  5 15  4  0
  5 28  1  0
  6 16  4  0
  7 18  4  0
  7 26  4  0
  8 18  1  0
  8 19  4  0
  8 22  4  0
  9 12  4  0
  9 19  4  0
 10 12  4  0
 10 22  4  0
 11 20  4  0
 11 21  4  0
 12 23  1  0
 13 20  4  0
 13 29  4  0
 14 17  4  0
 14 28  4  0
 15 25  2  0
 16 27  4  0
 17 18  4  0
 20 27  1  0
 24 27  4  0
 26 28  4  0
M  END
$$$$

 Created by Python create_sdf_string function

 29 32  0  0  0  0  0  0  0  0999 V2000
    8.9250   -7.1132   18.2893 C   0  0  0  0  0  0  0  0  0  0  0  0
    9.2880   -5.8325   17.6830 C   0  0  0  0  0  0  0  0  0  0  0  0
    3.6834   -9.4684   16.0753 N   0  0  0  0  0  0  0  0  0  0  0  0
    9.9870   -4.7478   18.0257 N   0  0  0  0  0  0  0  0  0  0  0  0
    8.6313   -5.6936   16.4191 C   0  0  0  0  0  0  0  0  0  0  0  0
   10.6403   -4.8635   21.7538 C   0  0  0  0  0  0  0  0  0  0  0  0
   10.4051   -3.0596   23.2513 C   0  0  0  0  0  0  0  0  0  0  0  0
   10.1640   -3.3376   25.6176 C   0  0  0  0  0  0  0  0  0  0  0  0
    9.7027   -1.2070   24.7467 C   0  0  0  0  0  0  0  0  0  0  0  0
    4.9225   -8.2599   17.4918 C   0  0  0  0  0  0  0  0  0  0  0  0
    9.7171   -2.0425   25.7391 C   0  0  0  0  0  0  0  0  0  0  0  0
    5.7386   -8.8033   15.4003 C   0  0  0  0  0  0  0  0  0  0  0  0
   10.6873   -3.0861   19.5403 N   0  0  0  0  0  0  0  0  0  0  0  0
    7.5639   -6.3775   16.1011 C   0  0  0  0  0  0  0  0  0  0  0  0
   10.8602   -2.6876   20.8382 C   0  0  0  0  0  0  0  0  0  0  0  0
   10.6393   -3.5820   21.8759 C   0  0  0  0  0  0  0  0  0  0  0  0
   10.4899   -3.8743   24.3625 C   0  0  0  0  0  0  0  0  0  0  0  0
    5.9921   -8.3516   16.5620 C   0  0  0  0  0  0  0  0  0  0  0  0
    3.9124   -8.8769   17.2912 C   0  0  0  0  0  0  0  0  0  0  0  0
   10.0739   -1.6596   23.3703 C   0  0  0  0  0  0  0  0  0  0  0  0
    9.3864   -1.7743   26.9731 F   0  0  0  0  0  0  0  0  0  0  0  0
    7.8782   -7.8349   17.9306 C   0  0  0  0  0  0  0  0  0  0  0  0
   10.8360   -3.1200   16.7437 O   0  0  0  0  0  0  0  0  0  0  0  0
   10.4229   -5.3615   20.3754 C   0  0  0  0  0  0  0  0  0  0  0  0
    7.2661   -7.4700   16.7591 C   0  0  0  0  0  0  0  0  0  0  0  0
   10.3588   -4.3282   19.2395 C   0  0  0  0  0  0  0  0  0  0  0  0
    4.7210   -9.3932   15.1126 C   0  0  0  0  0  0  0  0  0  0  0  0
    9.0665   -4.4850   15.8627 He  0  0  0  0  0  0  0  0  0  0  0  0
   10.0129   -4.0741   16.9088 He  0  0  0  0  0  0  0  0  0  0  0  0
  1  2  4  0
  1 22  4  0
  2  4  4  0
  2  5  4  0
  2 18  3  0
  3 19  4  0
  3 27  4  0
  4  9  4  0
  4 26  1  0
  5 14  4  0
  6 16  4  0
  7 16  1  0
  7 17  4  0
  7 20  4  0
  8 11  4  0
  8 17  1  0
  9 11  4  0
  9 20  4  0
 10 18  4  0
 10 19  4  0
 11 21  1  0
 12 18  4  0
 12 27  4  0
 13 15  4  0
 13 26  4  0
 14 25  4  0
 15 16  4  0
 17 23  2  0
 18 25  1  0
 18 26  3  0
 22 25  4  0
 24 26  4  0
M  END
$$$$

 Created by Python create_sdf_string function

 29 33  0  0  0  0  0  0  0  0999 V2000
    8.9648   -7.0534   18.3341 C   0  0  0  0  0  0  0  0  0  0  0  0
    9.1370   -4.4897   15.8745 O   0  0  0  0  0  0  0  0  0  0  0  0
    9.2094   -5.8893   17.6931 C   0  0  0  0  0  0  0  0  0  0  0  0
    3.6686   -9.4671   16.0656 N   0  0  0  0  0  0  0  0  0  0  0  0
    9.9495   -4.7722   18.0384 N   0  0  0  0  0  0  0  0  0  0  0  0
    8.5794   -5.6595   16.4416 C   0  0  0  0  0  0  0  0  0  0  0  0
   10.6110   -4.8969   21.6683 C   0  0  0  0  0  0  0  0  0  0  0  0
   10.4023   -3.0277   23.2443 C   0  0  0  0  0  0  0  0  0  0  0  0
   10.1600   -3.3911   25.6076 C   0  0  0  0  0  0  0  0  0  0  0  0
    9.7080   -1.2088   24.6809 C   0  0  0  0  0  0  0  0  0  0  0  0
    4.9985   -8.2867   17.5284 C   0  0  0  0  0  0  0  0  0  0  0  0
    9.7400   -2.0754   25.7573 C   0  0  0  0  0  0  0  0  0  0  0  0
    5.7848   -8.8005   15.3757 C   0  0  0  0  0  0  0  0  0  0  0  0
   10.7155   -3.0872   19.5199 N   0  0  0  0  0  0  0  0  0  0  0  0
   10.0285   -4.0111   16.8717 C   0  0  0  0  0  0  0  0  0  0  0  0
    7.6120   -6.4383   16.0366 C   0  0  0  0  0  0  0  0  0  0  0  0
   10.8408   -2.6774   20.8275 C   0  0  0  0  0  0  0  0  0  0  0  0
   10.6221   -3.5114   21.9118 C   0  0  0  0  0  0  0  0  0  0  0  0
   10.4965   -3.8966   24.3228 C   0  0  0  0  0  0  0  0  0  0  0  0
    5.9782   -8.1962   16.5779 C   0  0  0  0  0  0  0  0  0  0  0  0
    3.8443   -8.9196   17.2339 C   0  0  0  0  0  0  0  0  0  0  0  0
   10.0728   -1.6705   23.3892 C   0  0  0  0  0  0  0  0  0  0  0  0
    9.3817   -1.6920   26.9310 F   0  0  0  0  0  0  0  0  0  0  0  0
    7.9230   -7.8314   17.9226 C   0  0  0  0  0  0  0  0  0  0  0  0
   10.7817   -3.0941   16.7013 O   0  0  0  0  0  0  0  0  0  0  0  0
   10.4376   -5.3208   20.3347 C   0  0  0  0  0  0  0  0  0  0  0  0
    7.1666   -7.4870   16.8137 C   0  0  0  0  0  0  0  0  0  0  0  0
   10.3732   -4.3866   19.2757 C   0  0  0  0  0  0  0  0  0  0  0  0
    4.6203   -9.4353   15.1312 C   0  0  0  0  0  0  0  0  0  0  0  0
  1  3  4  0
  1 24  4  0
  2  6  4  0
  2 15  4  0
  3  5  4  0
  3  6  4  0
  4 21  4  0
  4 29  4  0
  5 15  4  0
  5 28  1  0
  6 16  4  0
  7 18  4  0
  7 26  4  0
  8 18  1  0
  8 19  4  0
  8 22  4  0
  9 12  4  0
  9 19  4  0
 10 12  4  0
 10 22  4  0
 11 20  4  0
 11 21  4  0
 12 23  1  0
 13 20  4  0
 13 29  4  0
 14 17  4  0
 14 28  4  0
 15 25  2  0
 16 27  4  0
 17 18  4  0
 20 27  1  0
 24 27  4  0
 26 28  4  0
M  END
$$$$

 Created by Python create_sdf_string function

 29 32  0  0  0  0  0  0  0  0999 V2000
    9.0035   -7.0347   18.3158 C   0  0  0  0  0  0  0  0  0  0  0  0
    9.1488   -4.4902   15.9271 O   0  0  0  0  0  0  0  0  0  0  0  0
    9.2640   -5.8776   17.7084 C   0  0  0  0  0  0  0  0  0  0  0  0
    3.6732   -9.4478   16.0248 N   0  0  0  0  0  0  0  0  0  0  0  0
    9.9897   -4.7817   18.0692 N   0  0  0  0  0  0  0  0  0  0  0  0
    8.6000   -5.6893   16.3725 C   0  0  0  0  0  0  0  0  0  0  0  0
   10.5807   -4.9298   21.6912 C   0  0  0  0  0  0  0  0  0  0  0  0
   10.1686   -3.3608   25.5606 C   0  0  0  0  0  0  0  0  0  0  0  0
    9.7035   -1.2287   24.6864 C   0  0  0  0  0  0  0  0  0  0  0  0
    5.0452   -8.3452   17.5302 C   0  0  0  0  0  0  0  0  0  0  0  0
    9.7091   -2.0950   25.7300 C   0  0  0  0  0  0  0  0  0  0  0  0
    5.7862   -8.8267   15.3288 C   0  0  0  0  0  0  0  0  0  0  0  0
   10.6458   -3.1077   19.5185 N   0  0  0  0  0  0  0  0  0  0  0  0
   10.0594   -3.9506   16.8638 C   0  0  0  0  0  0  0  0  0  0  0  0
   10.8930   -2.7055   20.8302 C   0  0  0  0  0  0  0  0  0  0  0  0
   10.5657   -3.5037   21.8647 C   0  0  0  0  0  0  0  0  0  0  0  0
   10.5405   -3.8192   24.2883 C   0  0  0  0  0  0  0  0  0  0  0  0
    5.9465   -8.1993   16.5441 C   0  0  0  0  0  0  0  0  0  0  0  0
    3.7993   -8.9073   17.2402 C   0  0  0  0  0  0  0  0  0  0  0  0
   10.0596   -1.6590   23.4554 C   0  0  0  0  0  0  0  0  0  0  0  0
    9.4151   -1.6733   26.9531 F   0  0  0  0  0  0  0  0  0  0  0  0
    7.9484   -7.8785   17.9737 C   0  0  0  0  0  0  0  0  0  0  0  0
   10.7534   -3.0599   16.7003 O   0  0  0  0  0  0  0  0  0  0  0  0
   10.4661   -5.3603   20.2409 C   0  0  0  0  0  0  0  0  0  0  0  0
    7.1116   -7.5258   16.8070 C   0  0  0  0  0  0  0  0  0  0  0  0
   10.3450   -4.3407   19.2803 C   0  0  0  0  0  0  0  0  0  0  0  0
    4.5911   -9.5426   15.1544 C   0  0  0  0  0  0  0  0  0  0  0  0
   10.4122   -2.9524   23.2270 He  0  0  0  0  0  0  0  0  0  0  0  0
    7.6577   -6.4343   15.9874 He  0  0  0  0  0  0  0  0  0  0  0  0
  1  3  4  0
  1 22  4  0
  2  6  4  0
  2 14  4  0
  2 27  3  0
  3  5  4  0
  3  6  4  0
  3 22  2  0
  4 19  4  0
  4 27  4  0
  5 14  4  0
  5 26  1  0
  6 15  3  0
  7 16  4  0
  7 24  4  0
  8 11  4  0
  8 17  4  0
  9 11  4  0
  9 20  4  0
 10 18  4  0
 10 19  4  0
 11 21  1  0
 12 18  4  0
 12 27  4  0
 13 15  4  0
 13 26  4  0
 14 15  1  0
 14 23  2  0
 15 16  4  0
 18 25  1  0
 22 25  4  0
 24 26  4  0
M  END
$$$$

 Created by Python create_sdf_string function

 29 33  0  0  0  0  0  0  0  0999 V2000
    8.9614   -7.0535   18.3402 C   0  0  0  0  0  0  0  0  0  0  0  0
    9.1540   -4.5232   15.8784 O   0  0  0  0  0  0  0  0  0  0  0  0
    9.2198   -5.8898   17.6903 C   0  0  0  0  0  0  0  0  0  0  0  0
    3.6361   -9.4783   16.0509 N   0  0  0  0  0  0  0  0  0  0  0  0
    9.9479   -4.7602   18.0206 N   0  0  0  0  0  0  0  0  0  0  0  0
    8.6030   -5.6744   16.4218 C   0  0  0  0  0  0  0  0  0  0  0  0
   10.5747   -4.8913   21.6504 C   0  0  0  0  0  0  0  0  0  0  0  0
   10.4025   -3.0091   23.2124 C   0  0  0  0  0  0  0  0  0  0  0  0
   10.1795   -3.3937   25.5509 C   0  0  0  0  0  0  0  0  0  0  0  0
    9.7044   -1.2166   24.6529 C   0  0  0  0  0  0  0  0  0  0  0  0
    4.9906   -8.3385   17.5159 C   0  0  0  0  0  0  0  0  0  0  0  0
    9.7433   -2.0842   25.7363 C   0  0  0  0  0  0  0  0  0  0  0  0
    5.7549   -8.8217   15.3462 C   0  0  0  0  0  0  0  0  0  0  0  0
   10.7016   -3.0804   19.5097 N   0  0  0  0  0  0  0  0  0  0  0  0
   10.0161   -3.9908   16.8633 C   0  0  0  0  0  0  0  0  0  0  0  0
    7.6219   -6.4764   16.0011 C   0  0  0  0  0  0  0  0  0  0  0  0
   10.8427   -2.6781   20.8045 C   0  0  0  0  0  0  0  0  0  0  0  0
   10.6133   -3.4977   21.8863 C   0  0  0  0  0  0  0  0  0  0  0  0
   10.5236   -3.8549   24.2891 C   0  0  0  0  0  0  0  0  0  0  0  0
    5.9731   -8.2285   16.5466 C   0  0  0  0  0  0  0  0  0  0  0  0
    3.8142   -8.9270   17.2264 C   0  0  0  0  0  0  0  0  0  0  0  0
   10.0633   -1.6661   23.3892 C   0  0  0  0  0  0  0  0  0  0  0  0
    9.4072   -1.6826   26.9033 F   0  0  0  0  0  0  0  0  0  0  0  0
    7.9178   -7.8392   17.9281 C   0  0  0  0  0  0  0  0  0  0  0  0
   10.7225   -3.0425   16.6983 O   0  0  0  0  0  0  0  0  0  0  0  0
   10.4341   -5.3367   20.3311 C   0  0  0  0  0  0  0  0  0  0  0  0
    7.1570   -7.5230   16.7982 C   0  0  0  0  0  0  0  0  0  0  0  0
   10.3677   -4.3910   19.2701 C   0  0  0  0  0  0  0  0  0  0  0  0
    4.6030   -9.4908   15.1159 C   0  0  0  0  0  0  0  0  0  0  0  0
  1  3  4  0
  1 24  4  0
  2  6  4  0
  2 15  4  0
  3  5  4  0
  3  6  4  0
  4 21  4  0
  4 29  4  0
  5 15  4  0
  5 28  1  0
  6 16  4  0
  7 18  4  0
  7 26  4  0
  8 18  1  0
  8 19  4  0
  8 22  4  0
  9 12  4  0
  9 19  4  0
 10 12  4  0
 10 22  4  0
 11 20  4  0
 11 21  4  0
 12 23  1  0
 13 20  4  0
 13 29  4  0
 14 17  4  0
 14 28  4  0
 15 25  2  0
 16 27  4  0
 17 18  4  0
 20 27  1  0
 24 27  4  0
 26 28  4  0
M  END
$$$$

 Created by Python create_sdf_string function

 29 34  0  0  0  0  0  0  0  0999 V2000
    8.9801   -7.0920   18.2914 C   0  0  0  0  0  0  0  0  0  0  0  0
    9.2389   -4.5223   15.8940 O   0  0  0  0  0  0  0  0  0  0  0  0
    9.2620   -5.8757   17.6957 C   0  0  0  0  0  0  0  0  0  0  0  0
    3.6911   -9.5213   16.0588 B   0  0  0  0  0  0  0  0  0  0  0  0
    9.9205   -4.7866   18.0280 N   0  0  0  0  0  0  0  0  0  0  0  0
    8.6196   -5.6684   16.4480 C   0  0  0  0  0  0  0  0  0  0  0  0
   10.6235   -4.8494   21.6947 C   0  0  0  0  0  0  0  0  0  0  0  0
   10.3800   -3.0290   23.1727 C   0  0  0  0  0  0  0  0  0  0  0  0
   10.2015   -3.3806   25.5315 C   0  0  0  0  0  0  0  0  0  0  0  0
    9.7233   -1.1971   24.6650 C   0  0  0  0  0  0  0  0  0  0  0  0
    4.9638   -8.3707   17.5862 C   0  0  0  0  0  0  0  0  0  0  0  0
    9.7132   -2.1101   25.7305 C   0  0  0  0  0  0  0  0  0  0  0  0
    5.7883   -8.8255   15.3229 C   0  0  0  0  0  0  0  0  0  0  0  0
   10.7454   -3.0525   19.4336 N   0  0  0  0  0  0  0  0  0  0  0  0
   10.0193   -4.0072   16.8404 C   0  0  0  0  0  0  0  0  0  0  0  0
    7.6155   -6.4395   16.0607 C   0  0  0  0  0  0  0  0  0  0  0  0
   10.8045   -2.6523   20.8022 C   0  0  0  0  0  0  0  0  0  0  0  0
   10.6105   -3.4549   21.8841 C   0  0  0  0  0  0  0  0  0  0  0  0
   10.5578   -3.8866   24.2482 C   0  0  0  0  0  0  0  0  0  0  0  0
    6.0178   -8.2287   16.5374 C   0  0  0  0  0  0  0  0  0  0  0  0
    3.8349   -8.9651   17.2491 C   0  0  0  0  0  0  0  0  0  0  0  0
   10.0061   -1.6482   23.4977 C   0  0  0  0  0  0  0  0  0  0  0  0
    9.3360   -1.6450   26.9270 F   0  0  0  0  0  0  0  0  0  0  0  0
    7.9728   -7.8116   17.9200 C   0  0  0  0  0  0  0  0  0  0  0  0
   10.7108   -3.0497   16.7211 O   0  0  0  0  0  0  0  0  0  0  0  0
   10.4538   -5.3235   20.4092 C   0  0  0  0  0  0  0  0  0  0  0  0
    7.1674   -7.5980   16.7912 C   0  0  0  0  0  0  0  0  0  0  0  0
   10.3655   -4.4067   19.2232 C   0  0  0  0  0  0  0  0  0  0  0  0
    4.6056   -9.5112   15.1345 C   0  0  0  0  0  0  0  0  0  0  0  0
  1  3  4  0
  1 24  4  0
  2  6  4  0
  3  5  4  0
  3  6  4  0
  4 21  4  0
  4 29  4  0
  5 15  4  0
  5 28  1  0
  6 16  4  0
  7 18  4  0
  7 26  4  0
  8 18  1  0
  8 19  4  0
  8 22  4  0
  9 12  4  0
  9 16  4  0
  9 19  4  0
 10 12  4  0
 10 22  4  0
 11 20  4  0
 11 21  4  0
 12 23  1  0
 13 20  4  0
 13 25  1  0
 13 29  4  0
 14 17  4  0
 14 28  4  0
 15 25  2  0
 16 27  4  0
 17 18  4  0
 20 27  1  0
 24 27  4  0
 26 28  4  0
M  END
$$$$

 Created by Python create_sdf_string function

 29 33  0  0  0  0  0  0  0  0999 V2000
    8.9754   -7.0613   18.3330 C   0  0  0  0  0  0  0  0  0  0  0  0
    9.1945   -4.5515   15.8742 O   0  0  0  0  0  0  0  0  0  0  0  0
    9.2194   -5.8931   17.6854 C   0  0  0  0  0  0  0  0  0  0  0  0
    3.6570   -9.5249   16.0646 N   0  0  0  0  0  0  0  0  0  0  0  0
    9.9499   -4.7873   18.0336 N   0  0  0  0  0  0  0  0  0  0  0  0
    8.6121   -5.6889   16.4387 C   0  0  0  0  0  0  0  0  0  0  0  0
   10.6096   -4.8602   21.6579 C   0  0  0  0  0  0  0  0  0  0  0  0
   10.3905   -2.9881   23.1912 C   0  0  0  0  0  0  0  0  0  0  0  0
   10.1952   -3.4040   25.5348 C   0  0  0  0  0  0  0  0  0  0  0  0
    9.7041   -1.2020   24.6437 C   0  0  0  0  0  0  0  0  0  0  0  0
    4.9981   -8.3692   17.5436 C   0  0  0  0  0  0  0  0  0  0  0  0
    9.7411   -2.0969   25.7297 C   0  0  0  0  0  0  0  0  0  0  0  0
    5.7549   -8.8243   15.3563 C   0  0  0  0  0  0  0  0  0  0  0  0
   10.7282   -3.0773   19.4846 N   0  0  0  0  0  0  0  0  0  0  0  0
   10.0199   -4.0095   16.8663 C   0  0  0  0  0  0  0  0  0  0  0  0
    7.6159   -6.4775   16.0328 C   0  0  0  0  0  0  0  0  0  0  0  0
   10.8121   -2.6448   20.7746 C   0  0  0  0  0  0  0  0  0  0  0  0
   10.6054   -3.4683   21.8758 C   0  0  0  0  0  0  0  0  0  0  0  0
   10.5236   -3.8751   24.2562 C   0  0  0  0  0  0  0  0  0  0  0  0
    5.9776   -8.2455   16.5694 C   0  0  0  0  0  0  0  0  0  0  0  0
    3.8336   -8.9850   17.2542 C   0  0  0  0  0  0  0  0  0  0  0  0
   10.0367   -1.6587   23.3733 C   0  0  0  0  0  0  0  0  0  0  0  0
    9.3643   -1.6900   26.8872 F   0  0  0  0  0  0  0  0  0  0  0  0
    7.9390   -7.8382   17.9124 C   0  0  0  0  0  0  0  0  0  0  0  0
   10.6965   -3.0366   16.7225 O   0  0  0  0  0  0  0  0  0  0  0  0
   10.4483   -5.3227   20.3595 C   0  0  0  0  0  0  0  0  0  0  0  0
    7.1665   -7.5259   16.8112 C   0  0  0  0  0  0  0  0  0  0  0  0
   10.3709   -4.4175   19.2682 C   0  0  0  0  0  0  0  0  0  0  0  0
    4.6049   -9.4889   15.1120 C   0  0  0  0  0  0  0  0  0  0  0  0
  1  3  4  0
  1 24  4  0
  2  6  4  0
  2 15  4  0
  3  5  4  0
  3  6  4  0
  4 21  4  0
  4 29  4  0
  5 15  4  0
  5 28  1  0
  6 16  4  0
  7 18  4  0
  7 26  4  0
  8 18  1  0
  8 19  4  0
  8 22  4  0
  9 12  4  0
  9 19  4  0
 10 12  4  0
 10 22  4  0
 11 20  4  0
 11 21  4  0
 12 23  1  0
 13 20  4  0
 13 29  4  0
 14 17  4  0
 14 28  4  0
 15 25  2  0
 16 27  4  0
 17 18  4  0
 20 27  1  0
 24 27  4  0
 26 28  4  0
M  END
$$$$

 Created by Python create_sdf_string function

 29 34  0  0  0  0  0  0  0  0999 V2000
    9.0113   -7.0389   18.3419 C   0  0  0  0  0  0  0  0  0  0  0  0
    9.1877   -4.5460   15.8742 O   0  0  0  0  0  0  0  0  0  0  0  0
    9.2454   -5.9075   17.6404 C   0  0  0  0  0  0  0  0  0  0  0  0
    3.6336   -9.5412   16.0939 S   0  0  0  0  0  0  0  0  0  0  0  0
    9.9398   -4.8054   18.0140 N   0  0  0  0  0  0  0  0  0  0  0  0
    8.5727   -5.6870   16.4272 C   0  0  0  0  0  0  0  0  0  0  0  0
   10.5759   -4.8774   21.6779 C   0  0  0  0  0  0  0  0  0  0  0  0
   10.4364   -3.0322   23.1394 C   0  0  0  0  0  0  0  0  0  0  0  0
   10.1819   -3.3576   25.5569 C   0  0  0  0  0  0  0  0  0  0  0  0
    9.6931   -1.1469   24.6223 C   0  0  0  0  0  0  0  0  0  0  0  0
    4.9410   -8.4138   17.5421 C   0  0  0  0  0  0  0  0  0  0  0  0
    9.7766   -2.0776   25.7453 C   0  0  0  0  0  0  0  0  0  0  0  0
    5.7691   -8.8079   15.3807 C   0  0  0  0  0  0  0  0  0  0  0  0
   10.7080   -3.1108   19.5158 N   0  0  0  0  0  0  0  0  0  0  0  0
   10.0106   -4.0102   16.8874 C   0  0  0  0  0  0  0  0  0  0  0  0
    7.5849   -6.4142   15.9773 C   0  0  0  0  0  0  0  0  0  0  0  0
   10.7913   -2.6374   20.7937 C   0  0  0  0  0  0  0  0  0  0  0  0
   10.5880   -3.4058   21.8709 C   0  0  0  0  0  0  0  0  0  0  0  0
   10.5105   -3.9295   24.2827 C   0  0  0  0  0  0  0  0  0  0  0  0
    5.9398   -8.2544   16.5764 C   0  0  0  0  0  0  0  0  0  0  0  0
    3.8795   -8.9872   17.2581 C   0  0  0  0  0  0  0  0  0  0  0  0
   10.0291   -1.6636   23.4060 C   0  0  0  0  0  0  0  0  0  0  0  0
    9.3568   -1.7191   26.9196 F   0  0  0  0  0  0  0  0  0  0  0  0
    7.9472   -7.8843   17.9484 C   0  0  0  0  0  0  0  0  0  0  0  0
   10.6512   -3.0052   16.7601 O   0  0  0  0  0  0  0  0  0  0  0  0
   10.4754   -5.3094   20.3254 C   0  0  0  0  0  0  0  0  0  0  0  0
   10.3952   -4.3918   19.2813 C   0  0  0  0  0  0  0  0  0  0  0  0
    4.5802   -9.4589   15.1149 C   0  0  0  0  0  0  0  0  0  0  0  0
    7.1771   -7.5025   16.8178 He  0  0  0  0  0  0  0  0  0  0  0  0
  1  3  4  0
  1 24  4  0
  2  6  4  0
  2 15  4  0
  3  5  4  0
  3  6  4  0
  4 21  4  0
  4 28  4  0
  5 15  4  0
  5 27  1  0
  6 16  4  0
  7 18  4  0
  7 26  4  0
  8 18  1  0
  8 19  4  0
  8 22  4  0
  9 12  4  0
  9 19  4  0
 10 12  4  0
 10 22  4  0
 11 20  4  0
 11 21  4  0
 12 23  1  0
 13 20  4  0
 13 28  4  0
 14 17  4  0
 14 27  4  0
 15 25  2  0
 16 20  2  0
 17 18  4  0
 18 25  3  0
 20 22  3  0
 21 24  2  0
 26 27  4  0
M  END
$$$$

 Created by Python create_sdf_string function

 29 33  0  0  0  0  0  0  0  0999 V2000
    8.9531   -7.0741   18.3467 C   0  0  0  0  0  0  0  0  0  0  0  0
    9.1606   -4.5563   15.8723 O   0  0  0  0  0  0  0  0  0  0  0  0
    9.2035   -5.9120   17.6782 C   0  0  0  0  0  0  0  0  0  0  0  0
    3.6321   -9.5316   16.0642 N   0  0  0  0  0  0  0  0  0  0  0  0
    9.9480   -4.7947   18.0125 N   0  0  0  0  0  0  0  0  0  0  0  0
    8.5912   -5.6951   16.4274 C   0  0  0  0  0  0  0  0  0  0  0  0
   10.5882   -4.8754   21.6415 C   0  0  0  0  0  0  0  0  0  0  0  0
   10.3877   -3.0056   23.1892 C   0  0  0  0  0  0  0  0  0  0  0  0
   10.1924   -3.4014   25.5422 C   0  0  0  0  0  0  0  0  0  0  0  0
    9.7077   -1.1900   24.6284 C   0  0  0  0  0  0  0  0  0  0  0  0
    5.0128   -8.3838   17.5443 C   0  0  0  0  0  0  0  0  0  0  0  0
    9.7645   -2.0799   25.7195 C   0  0  0  0  0  0  0  0  0  0  0  0
    5.7406   -8.7923   15.3675 C   0  0  0  0  0  0  0  0  0  0  0  0
   10.7157   -3.0809   19.4866 N   0  0  0  0  0  0  0  0  0  0  0  0
    9.9911   -4.0083   16.8798 C   0  0  0  0  0  0  0  0  0  0  0  0
    7.5799   -6.4836   16.0227 C   0  0  0  0  0  0  0  0  0  0  0  0
   10.8059   -2.6473   20.7611 C   0  0  0  0  0  0  0  0  0  0  0  0
   10.5984   -3.4866   21.8609 C   0  0  0  0  0  0  0  0  0  0  0  0
   10.5037   -3.8947   24.2795 C   0  0  0  0  0  0  0  0  0  0  0  0
    5.9705   -8.2314   16.5774 C   0  0  0  0  0  0  0  0  0  0  0  0
    3.8620   -9.0037   17.2724 C   0  0  0  0  0  0  0  0  0  0  0  0
   10.0529   -1.6648   23.3516 C   0  0  0  0  0  0  0  0  0  0  0  0
    9.3953   -1.6977   26.8862 F   0  0  0  0  0  0  0  0  0  0  0  0
    7.9175   -7.8550   17.9242 C   0  0  0  0  0  0  0  0  0  0  0  0
   10.6392   -3.0111   16.7415 O   0  0  0  0  0  0  0  0  0  0  0  0
   10.4580   -5.3295   20.3454 C   0  0  0  0  0  0  0  0  0  0  0  0
    7.1467   -7.5234   16.8183 C   0  0  0  0  0  0  0  0  0  0  0  0
   10.3853   -4.4070   19.2686 C   0  0  0  0  0  0  0  0  0  0  0  0
    4.5940   -9.4537   15.0976 C   0  0  0  0  0  0  0  0  0  0  0  0
  1  3  4  0
  1 24  4  0
  2  6  4  0
  2 15  4  0
  3  5  4  0
  3  6  4  0
  4 21  4  0
  4 29  4  0
  5 15  4  0
  5 28  1  0
  6 16  4  0
  7 18  4  0
  7 26  4  0
  8 18  1  0
  8 19  4  0
  8 22  4  0
  9 12  4  0
  9 19  4  0
 10 12  4  0
 10 22  4  0
 11 20  4  0
 11 21  4  0
 12 23  1  0
 13 20  4  0
 13 29  4  0
 14 17  4  0
 14 28  4  0
 15 25  2  0
 16 27  4  0
 17 18  4  0
 20 27  1  0
 24 27  4  0
 26 28  4  0
M  END
$$$$

 Created by Python create_sdf_string function

 29 35  0  0  0  0  0  0  0  0999 V2000
    8.9283   -7.0821   18.3810 C   0  0  0  0  0  0  0  0  0  0  0  0
    9.1523   -4.5487   15.8763 O   0  0  0  0  0  0  0  0  0  0  0  0
    9.1762   -5.9425   17.6955 C   0  0  0  0  0  0  0  0  0  0  0  0
    3.6490   -9.5220   16.0481 N   0  0  0  0  0  0  0  0  0  0  0  0
    9.9268   -4.8138   18.0000 N   0  0  0  0  0  0  0  0  0  0  0  0
    8.6176   -5.6762   16.4116 C   0  0  0  0  0  0  0  0  0  0  0  0
   10.5635   -4.8578   21.6032 C   0  0  0  0  0  0  0  0  0  0  0  0
   10.3570   -2.9761   23.2052 C   0  0  0  0  0  0  0  0  0  0  0  0
    9.6660   -1.2173   24.6451 C   0  0  0  0  0  0  0  0  0  0  0  0
    5.0031   -8.3928   17.5483 C   0  0  0  0  0  0  0  0  0  0  0  0
    9.7151   -2.1217   25.6922 C   0  0  0  0  0  0  0  0  0  0  0  0
    5.7729   -8.7962   15.3572 C   0  0  0  0  0  0  0  0  0  0  0  0
   10.7284   -3.0737   19.4698 N   0  0  0  0  0  0  0  0  0  0  0  0
    9.9335   -3.9809   16.8843 C   0  0  0  0  0  0  0  0  0  0  0  0
    7.5926   -6.4717   16.0055 C   0  0  0  0  0  0  0  0  0  0  0  0
   10.7720   -2.6384   20.7765 C   0  0  0  0  0  0  0  0  0  0  0  0
   10.5970   -3.4485   21.8587 C   0  0  0  0  0  0  0  0  0  0  0  0
   10.5064   -3.9673   24.3067 C   0  0  0  0  0  0  0  0  0  0  0  0
    5.9966   -8.2286   16.6079 C   0  0  0  0  0  0  0  0  0  0  0  0
    3.8801   -9.0197   17.3100 C   0  0  0  0  0  0  0  0  0  0  0  0
   10.0681   -1.6558   23.3517 C   0  0  0  0  0  0  0  0  0  0  0  0
    9.3873   -1.6495   26.8988 F   0  0  0  0  0  0  0  0  0  0  0  0
    7.8906   -7.8677   17.9179 C   0  0  0  0  0  0  0  0  0  0  0  0
   10.6591   -2.9989   16.7359 O   0  0  0  0  0  0  0  0  0  0  0  0
   10.4464   -5.3531   20.3698 C   0  0  0  0  0  0  0  0  0  0  0  0
    7.1864   -7.5082   16.8044 C   0  0  0  0  0  0  0  0  0  0  0  0
   10.3825   -4.4600   19.2696 C   0  0  0  0  0  0  0  0  0  0  0  0
    4.5628   -9.4407   15.0891 C   0  0  0  0  0  0  0  0  0  0  0  0
   10.2044   -3.3871   25.5234 He  0  0  0  0  0  0  0  0  0  0  0  0
  1  3  4  0
  1 23  4  0
  2  6  4  0
  2 14  4  0
  3  5  4  0
  3  6  4  0
  3 21  4  0
  4 20  4  0
  4 28  4  0
  5 14  4  0
  5 27  1  0
  6 15  4  0
  7 13  4  0
  7 17  4  0
  7 25  2  0
  8 15  2  0
  8 17  1  0
  8 18  4  0
  8 21  4  0
  9 11  4  0
  9 21  4  0
 10 19  4  0
 10 20  4  0
 11 22  1  0
 12 19  4  0
 12 28  4  0
 13 16  4  0
 13 27  4  0
 14 24  2  0
 15 26  4  0
 16 17  4  0
 19 26  1  0
 20 24  3  0
 23 26  4  0
 25 27  4  0
M  END
$$$$

 Created by Python create_sdf_string function

 29 33  0  0  0  0  0  0  0  0999 V2000
    8.9148   -7.0634   18.3776 C   0  0  0  0  0  0  0  0  0  0  0  0
    9.1466   -4.5551   15.8784 O   0  0  0  0  0  0  0  0  0  0  0  0
    9.1831   -5.9094   17.6887 C   0  0  0  0  0  0  0  0  0  0  0  0
    3.6586   -9.5190   16.0585 N   0  0  0  0  0  0  0  0  0  0  0  0
    9.9312   -4.7924   18.0243 N   0  0  0  0  0  0  0  0  0  0  0  0
    8.5948   -5.6931   16.4228 C   0  0  0  0  0  0  0  0  0  0  0  0
   10.5766   -4.8653   21.6221 C   0  0  0  0  0  0  0  0  0  0  0  0
   10.3818   -3.0041   23.1981 C   0  0  0  0  0  0  0  0  0  0  0  0
   10.1939   -3.4138   25.5108 C   0  0  0  0  0  0  0  0  0  0  0  0
    9.6802   -1.2052   24.6079 C   0  0  0  0  0  0  0  0  0  0  0  0
    5.0221   -8.4088   17.5424 C   0  0  0  0  0  0  0  0  0  0  0  0
    9.7403   -2.1100   25.6906 C   0  0  0  0  0  0  0  0  0  0  0  0
    5.7380   -8.7855   15.3619 C   0  0  0  0  0  0  0  0  0  0  0  0
   10.7197   -3.0987   19.4958 N   0  0  0  0  0  0  0  0  0  0  0  0
    9.9629   -4.0120   16.8867 C   0  0  0  0  0  0  0  0  0  0  0  0
    7.6147   -6.4940   16.0072 C   0  0  0  0  0  0  0  0  0  0  0  0
   10.7900   -2.6300   20.7608 C   0  0  0  0  0  0  0  0  0  0  0  0
   10.5910   -3.4787   21.8665 C   0  0  0  0  0  0  0  0  0  0  0  0
   10.4971   -3.9174   24.2695 C   0  0  0  0  0  0  0  0  0  0  0  0
    5.9762   -8.2436   16.5712 C   0  0  0  0  0  0  0  0  0  0  0  0
    3.8708   -9.0342   17.2689 C   0  0  0  0  0  0  0  0  0  0  0  0
   10.0605   -1.6521   23.3396 C   0  0  0  0  0  0  0  0  0  0  0  0
    9.4060   -1.6986   26.8392 F   0  0  0  0  0  0  0  0  0  0  0  0
    7.8940   -7.8392   17.9368 C   0  0  0  0  0  0  0  0  0  0  0  0
   10.6194   -3.0182   16.7656 O   0  0  0  0  0  0  0  0  0  0  0  0
   10.4354   -5.3315   20.3613 C   0  0  0  0  0  0  0  0  0  0  0  0
    7.1645   -7.5191   16.8115 C   0  0  0  0  0  0  0  0  0  0  0  0
   10.3724   -4.4363   19.2661 C   0  0  0  0  0  0  0  0  0  0  0  0
    4.5835   -9.4274   15.1002 C   0  0  0  0  0  0  0  0  0  0  0  0
  1  3  4  0
  1 24  4  0
  2  6  4  0
  2 15  4  0
  3  5  4  0
  3  6  4  0
  4 21  4  0
  4 29  4  0
  5 15  4  0
  5 28  1  0
  6 16  4  0
  7 18  4  0
  7 26  4  0
  8 18  1  0
  8 19  4  0
  8 22  4  0
  9 12  4  0
  9 19  4  0
 10 12  4  0
 10 22  4  0
 11 20  4  0
 11 21  4  0
 12 23  1  0
 13 20  4  0
 13 29  4  0
 14 17  4  0
 14 28  4  0
 15 25  2  0
 16 27  4  0
 17 18  4  0
 20 27  1  0
 24 27  4  0
 26 28  4  0
M  END
$$$$

 Created by Python create_sdf_string function

 29 33  0  0  0  0  0  0  0  0999 V2000
    8.9107   -7.0813   18.3563 C   0  0  0  0  0  0  0  0  0  0  0  0
    9.1512   -4.5532   15.9102 O   0  0  0  0  0  0  0  0  0  0  0  0
    9.1845   -5.8601   17.6355 C   0  0  0  0  0  0  0  0  0  0  0  0
    3.6718   -9.5093   16.0645 N   0  0  0  0  0  0  0  0  0  0  0  0
    9.9350   -4.8348   18.0203 N   0  0  0  0  0  0  0  0  0  0  0  0
    8.6049   -5.7219   16.4482 C   0  0  0  0  0  0  0  0  0  0  0  0
   10.5779   -4.8324   21.6104 C   0  0  0  0  0  0  0  0  0  0  0  0
   10.4009   -2.9936   23.2222 C   0  0  0  0  0  0  0  0  0  0  0  0
   10.2187   -3.3719   25.5029 C   0  0  0  0  0  0  0  0  0  0  0  0
    9.6808   -1.2391   24.6134 C   0  0  0  0  0  0  0  0  0  0  0  0
    5.0103   -8.4467   17.5276 C   0  0  0  0  0  0  0  0  0  0  0  0
    9.7221   -2.1270   25.6906 C   0  0  0  0  0  0  0  0  0  0  0  0
    5.7366   -8.7789   15.3657 C   0  0  0  0  0  0  0  0  0  0  0  0
   10.7381   -3.0718   19.4727 N   0  0  0  0  0  0  0  0  0  0  0  0
    9.9509   -4.0337   16.9183 C   0  0  0  0  0  0  0  0  0  0  0  0
    7.5759   -6.4663   16.0063 C   0  0  0  0  0  0  0  0  0  0  0  0
   10.8044   -2.5886   20.7493 C   0  0  0  0  0  0  0  0  0  0  0  0
   10.5722   -3.5263   21.8490 C   0  0  0  0  0  0  0  0  0  0  0  0
   10.5283   -3.9543   24.2567 C   0  0  0  0  0  0  0  0  0  0  0  0
    5.9812   -8.2520   16.5575 C   0  0  0  0  0  0  0  0  0  0  0  0
    3.8624   -9.0503   17.2601 C   0  0  0  0  0  0  0  0  0  0  0  0
   10.0975   -1.6430   23.3459 C   0  0  0  0  0  0  0  0  0  0  0  0
    9.3831   -1.6169   26.8470 F   0  0  0  0  0  0  0  0  0  0  0  0
    7.9000   -7.8682   17.9472 C   0  0  0  0  0  0  0  0  0  0  0  0
   10.6563   -2.9967   16.7108 O   0  0  0  0  0  0  0  0  0  0  0  0
   10.4357   -5.3294   20.3805 C   0  0  0  0  0  0  0  0  0  0  0  0
    7.2014   -7.5152   16.8137 C   0  0  0  0  0  0  0  0  0  0  0  0
   10.3952   -4.4451   19.3062 C   0  0  0  0  0  0  0  0  0  0  0  0
    4.5708   -9.4103   15.1052 C   0  0  0  0  0  0  0  0  0  0  0  0
  1  3  4  0
  1 24  4  0
  2  6  4  0
  2 15  4  0
  3  5  4  0
  3  6  4  0
  4 21  4  0
  4 29  4  0
  5 15  4  0
  5 28  1  0
  6 16  4  0
  6 26  1  0
  7 18  4  0
  7 26  1  0
  8 18  1  0
  8 19  4  0
  8 22  4  0
  9 12  4  0
  9 19  4  0
 10 12  4  0
 10 22  4  0
 11 20  4  0
 11 21  4  0
 12 23  1  0
 13 20  4  0
 13 29  4  0
 14 17  4  0
 14 28  4  0
 15 25  2  0
 16 27  4  0
 17 18  4  0
 24 27  4  0
 26 28  4  0
M  END
$$$$

 Created by Python create_sdf_string function

 29 33  0  0  0  0  0  0  0  0999 V2000
    8.9111   -7.0571   18.3654 C   0  0  0  0  0  0  0  0  0  0  0  0
    9.1431   -4.5672   15.8969 O   0  0  0  0  0  0  0  0  0  0  0  0
    9.1765   -5.9085   17.6879 C   0  0  0  0  0  0  0  0  0  0  0  0
    3.6521   -9.5158   16.0652 N   0  0  0  0  0  0  0  0  0  0  0  0
    9.9330   -4.8111   18.0342 N   0  0  0  0  0  0  0  0  0  0  0  0
    8.5811   -5.7044   16.4340 C   0  0  0  0  0  0  0  0  0  0  0  0
   10.5897   -4.8869   21.6197 C   0  0  0  0  0  0  0  0  0  0  0  0
   10.4044   -3.0029   23.1785 C   0  0  0  0  0  0  0  0  0  0  0  0
   10.2104   -3.4101   25.4963 C   0  0  0  0  0  0  0  0  0  0  0  0
    9.6982   -1.2212   24.5823 C   0  0  0  0  0  0  0  0  0  0  0  0
    5.0239   -8.4485   17.5391 C   0  0  0  0  0  0  0  0  0  0  0  0
    9.7500   -2.1026   25.6709 C   0  0  0  0  0  0  0  0  0  0  0  0
    5.7170   -8.7608   15.3484 C   0  0  0  0  0  0  0  0  0  0  0  0
   10.7316   -3.0857   19.4759 N   0  0  0  0  0  0  0  0  0  0  0  0
    9.9707   -4.0251   16.8946 C   0  0  0  0  0  0  0  0  0  0  0  0
    7.5986   -6.4988   16.0087 C   0  0  0  0  0  0  0  0  0  0  0  0
   10.8084   -2.6133   20.7556 C   0  0  0  0  0  0  0  0  0  0  0  0
   10.6020   -3.4935   21.8449 C   0  0  0  0  0  0  0  0  0  0  0  0
   10.5179   -3.9098   24.2467 C   0  0  0  0  0  0  0  0  0  0  0  0
    5.9721   -8.2496   16.5672 C   0  0  0  0  0  0  0  0  0  0  0  0
    3.8681   -9.0559   17.2593 C   0  0  0  0  0  0  0  0  0  0  0  0
   10.0885   -1.6578   23.3234 C   0  0  0  0  0  0  0  0  0  0  0  0
    9.3979   -1.6700   26.8116 F   0  0  0  0  0  0  0  0  0  0  0  0
    7.8843   -7.8418   17.9369 C   0  0  0  0  0  0  0  0  0  0  0  0
   10.6259   -3.0232   16.7430 O   0  0  0  0  0  0  0  0  0  0  0  0
   10.4485   -5.3517   20.3549 C   0  0  0  0  0  0  0  0  0  0  0  0
    7.1573   -7.5270   16.8118 C   0  0  0  0  0  0  0  0  0  0  0  0
   10.3774   -4.4364   19.2824 C   0  0  0  0  0  0  0  0  0  0  0  0
    4.5681   -9.4075   15.1071 C   0  0  0  0  0  0  0  0  0  0  0  0
  1  3  4  0
  1 24  4  0
  2  6  4  0
  2 15  4  0
  3  5  4  0
  3  6  4  0
  4 21  4  0
  4 29  4  0
  5 15  4  0
  5 28  1  0
  6 16  4  0
  7 18  4  0
  7 26  4  0
  8 18  1  0
  8 19  4  0
  8 22  4  0
  9 12  4  0
  9 19  4  0
 10 12  4  0
 10 22  4  0
 11 20  4  0
 11 21  4  0
 12 23  1  0
 13 20  4  0
 13 29  4  0
 14 17  4  0
 14 28  4  0
 15 25  2  0
 16 27  4  0
 17 18  4  0
 20 27  1  0
 24 27  4  0
 26 28  4  0
M  END
$$$$

 Created by Python create_sdf_string function

 29 36  0  0  0  0  0  0  0  0999 V2000
    8.9223   -7.0670   18.3696 C   0  0  0  0  0  0  0  0  0  0  0  0
    9.1503   -4.5798   15.8980 O   0  0  0  0  0  0  0  0  0  0  0  0
    9.1823   -5.8926   17.6887 C   0  0  0  0  0  0  0  0  0  0  0  0
    3.6504   -9.5233   16.0827 N   0  0  0  0  0  0  0  0  0  0  0  0
    9.9515   -4.8214   18.0457 N   0  0  0  0  0  0  0  0  0  0  0  0
    8.5741   -5.7301   16.4356 C   0  0  0  0  0  0  0  0  0  0  0  0
   10.5943   -4.8812   21.6408 C   0  0  0  0  0  0  0  0  0  0  0  0
   10.4033   -2.9864   23.1782 C   0  0  0  0  0  0  0  0  0  0  0  0
   10.2255   -3.4189   25.5121 C   0  0  0  0  0  0  0  0  0  0  0  0
    9.7127   -1.2441   24.5844 C   0  0  0  0  0  0  0  0  0  0  0  0
    5.0463   -8.4653   17.5325 C   0  0  0  0  0  0  0  0  0  0  0  0
    9.7538   -2.1128   25.6745 C   0  0  0  0  0  0  0  0  0  0  0  0
    5.7207   -8.7575   15.3440 C   0  0  0  0  0  0  0  0  0  0  0  0
   10.7399   -3.1162   19.5045 N   0  0  0  0  0  0  0  0  0  0  0  0
    9.9886   -3.9935   16.8862 C   0  0  0  0  0  0  0  0  0  0  0  0
    7.5973   -6.4783   15.9900 C   0  0  0  0  0  0  0  0  0  0  0  0
   10.8109   -2.6080   20.7474 C   0  0  0  0  0  0  0  0  0  0  0  0
   10.5881   -3.4812   21.8537 C   0  0  0  0  0  0  0  0  0  0  0  0
   10.5307   -3.8717   24.2079 C   0  0  0  0  0  0  0  0  0  0  0  0
    5.9768   -8.2698   16.5662 C   0  0  0  0  0  0  0  0  0  0  0  0
    3.8735   -9.0429   17.2548 C   0  0  0  0  0  0  0  0  0  0  0  0
   10.1077   -1.6575   23.3214 C   0  0  0  0  0  0  0  0  0  0  0  0
    9.4031   -1.6141   26.8218 F   0  0  0  0  0  0  0  0  0  0  0  0
    7.8872   -7.8421   17.9397 C   0  0  0  0  0  0  0  0  0  0  0  0
   10.6409   -3.0395   16.7660 O   0  0  0  0  0  0  0  0  0  0  0  0
   10.4488   -5.3650   20.3947 C   0  0  0  0  0  0  0  0  0  0  0  0
    7.1479   -7.5195   16.8165 C   0  0  0  0  0  0  0  0  0  0  0  0
   10.3894   -4.4415   19.2888 C   0  0  0  0  0  0  0  0  0  0  0  0
    4.5564   -9.4163   15.1301 C   0  0  0  0  0  0  0  0  0  0  0  0
  1  3  4  0
  1 24  4  0
  2  6  4  0
  2 15  4  0
  3  5  4  0
  3  6  4  0
  3 28  1  0
  4  5  1  0
  4 21  4  0
  4 29  4  0
  5 15  4  0
  5 28  1  0
  6 16  4  0
  7 17  3  0
  7 18  4  0
  7 26  4  0
  8 18  1  0
  8 19  4  0
  8 22  4  0
  9 12  4  0
  9 19  4  0
 10 12  4  0
 10 22  4  0
 11 20  4  0
 11 21  4  0
 12 23  1  0
 13 20  4  0
 13 29  4  0
 14 17  4  0
 14 28  4  0
 15 25  2  0
 16 27  4  0
 17 18  4  0
 20 27  1  0
 24 27  4  0
 26 28  4  0
M  END
$$$$

 Created by Python create_sdf_string function

 29 33  0  0  0  0  0  0  0  0999 V2000
    8.8917   -7.0621   18.3765 C   0  0  0  0  0  0  0  0  0  0  0  0
    9.1443   -4.5818   15.8870 O   0  0  0  0  0  0  0  0  0  0  0  0
    9.1693   -5.9144   17.6961 C   0  0  0  0  0  0  0  0  0  0  0  0
    3.6487   -9.5230   16.0730 N   0  0  0  0  0  0  0  0  0  0  0  0
    9.9311   -4.8054   18.0374 N   0  0  0  0  0  0  0  0  0  0  0  0
    8.5780   -5.7157   16.4317 C   0  0  0  0  0  0  0  0  0  0  0  0
   10.5953   -4.8761   21.6378 C   0  0  0  0  0  0  0  0  0  0  0  0
   10.4123   -2.9950   23.1570 C   0  0  0  0  0  0  0  0  0  0  0  0
   10.2215   -3.4286   25.4867 C   0  0  0  0  0  0  0  0  0  0  0  0
    9.7210   -1.2113   24.5617 C   0  0  0  0  0  0  0  0  0  0  0  0
    5.0367   -8.4709   17.5384 C   0  0  0  0  0  0  0  0  0  0  0  0
    9.7688   -2.0925   25.6593 C   0  0  0  0  0  0  0  0  0  0  0  0
    5.7010   -8.7530   15.3362 C   0  0  0  0  0  0  0  0  0  0  0  0
   10.7359   -3.1071   19.4892 N   0  0  0  0  0  0  0  0  0  0  0  0
    9.9721   -4.0333   16.8958 C   0  0  0  0  0  0  0  0  0  0  0  0
    7.5992   -6.5082   16.0004 C   0  0  0  0  0  0  0  0  0  0  0  0
   10.8171   -2.6366   20.7508 C   0  0  0  0  0  0  0  0  0  0  0  0
   10.6111   -3.4843   21.8455 C   0  0  0  0  0  0  0  0  0  0  0  0
   10.5204   -3.8743   24.2202 C   0  0  0  0  0  0  0  0  0  0  0  0
    5.9632   -8.2570   16.5607 C   0  0  0  0  0  0  0  0  0  0  0  0
    3.8818   -9.0615   17.2563 C   0  0  0  0  0  0  0  0  0  0  0  0
   10.0990   -1.6532   23.3062 C   0  0  0  0  0  0  0  0  0  0  0  0
    9.4222   -1.6632   26.7905 F   0  0  0  0  0  0  0  0  0  0  0  0
    7.8677   -7.8315   17.9409 C   0  0  0  0  0  0  0  0  0  0  0  0
   10.6231   -3.0413   16.7659 O   0  0  0  0  0  0  0  0  0  0  0  0
   10.4390   -5.3576   20.3754 C   0  0  0  0  0  0  0  0  0  0  0  0
    7.1438   -7.5319   16.8097 C   0  0  0  0  0  0  0  0  0  0  0  0
   10.3804   -4.4353   19.2921 C   0  0  0  0  0  0  0  0  0  0  0  0
    4.5565   -9.4087   15.1123 C   0  0  0  0  0  0  0  0  0  0  0  0
  1  3  4  0
  1 24  4  0
  2  6  4  0
  2 15  4  0
  3  5  4  0
  3  6  4  0
  4 21  4  0
  4 29  4  0
  5 15  4  0
  5 28  1  0
  6 16  4  0
  7 18  4  0
  7 26  4  0
  8 18  1  0
  8 19  4  0
  8 22  4  0
  9 12  4  0
  9 19  4  0
 10 12  4  0
 10 22  4  0
 11 20  4  0
 11 21  4  0
 12 23  1  0
 13 20  4  0
 13 29  4  0
 14 17  4  0
 14 28  4  0
 15 25  2  0
 16 27  4  0
 17 18  4  0
 20 27  1  0
 24 27  4  0
 26 28  4  0
M  END
$$$$

 Created by Python create_sdf_string function

 29 33  0  0  0  0  0  0  0  0999 V2000
    8.9057   -7.0853   18.3632 C   0  0  0  0  0  0  0  0  0  0  0  0
    9.1395   -4.5799   15.8862 O   0  0  0  0  0  0  0  0  0  0  0  0
    9.1677   -5.8950   17.6942 C   0  0  0  0  0  0  0  0  0  0  0  0
    3.6291   -9.5277   16.0523 N   0  0  0  0  0  0  0  0  0  0  0  0
    9.9413   -4.8116   18.0494 N   0  0  0  0  0  0  0  0  0  0  0  0
    8.5685   -5.7273   16.4404 C   0  0  0  0  0  0  0  0  0  0  0  0
   10.5897   -4.8744   21.6219 C   0  0  0  0  0  0  0  0  0  0  0  0
   10.4187   -2.9798   23.1409 C   0  0  0  0  0  0  0  0  0  0  0  0
   10.2302   -3.4243   25.5043 C   0  0  0  0  0  0  0  0  0  0  0  0
    9.7353   -1.1798   24.5522 C   0  0  0  0  0  0  0  0  0  0  0  0
    5.0316   -8.4552   17.5646 C   0  0  0  0  0  0  0  0  0  0  0  0
    9.7703   -2.0842   25.6569 C   0  0  0  0  0  0  0  0  0  0  0  0
    5.6589   -8.7469   15.3578 C   0  0  0  0  0  0  0  0  0  0  0  0
   10.7295   -3.1056   19.4693 N   0  0  0  0  0  0  0  0  0  0  0  0
    9.9587   -4.0356   16.8986 C   0  0  0  0  0  0  0  0  0  0  0  0
    7.6202   -6.5168   16.0153 C   0  0  0  0  0  0  0  0  0  0  0  0
   10.8095   -2.6293   20.7489 C   0  0  0  0  0  0  0  0  0  0  0  0
   10.5943   -3.4969   21.8398 C   0  0  0  0  0  0  0  0  0  0  0  0
   10.5180   -3.8958   24.2563 C   0  0  0  0  0  0  0  0  0  0  0  0
    5.9919   -8.2659   16.5556 C   0  0  0  0  0  0  0  0  0  0  0  0
    3.8812   -9.0711   17.2339 C   0  0  0  0  0  0  0  0  0  0  0  0
   10.0852   -1.6526   23.3128 C   0  0  0  0  0  0  0  0  0  0  0  0
    9.4033   -1.6601   26.7925 F   0  0  0  0  0  0  0  0  0  0  0  0
    7.8512   -7.8276   17.9568 C   0  0  0  0  0  0  0  0  0  0  0  0
   10.6326   -3.0636   16.7670 O   0  0  0  0  0  0  0  0  0  0  0  0
   10.4388   -5.3701   20.3821 C   0  0  0  0  0  0  0  0  0  0  0  0
    7.1639   -7.5584   16.8364 C   0  0  0  0  0  0  0  0  0  0  0  0
   10.3894   -4.4296   19.3056 C   0  0  0  0  0  0  0  0  0  0  0  0
    4.5494   -9.4213   15.1196 C   0  0  0  0  0  0  0  0  0  0  0  0
  1  3  4  0
  1 24  4  0
  2  6  4  0
  2 15  4  0
  3  5  4  0
  3  6  4  0
  4 21  4  0
  4 29  4  0
  5 15  4  0
  5 28  1  0
  6 16  4  0
  7 18  4  0
  7 26  4  0
  8 18  1  0
  8 19  4  0
  8 22  4  0
  9 12  4  0
  9 19  4  0
 10 12  4  0
 10 22  4  0
 11 20  4  0
 11 21  4  0
 12 23  1  0
 13 20  4  0
 13 29  4  0
 14 17  4  0
 14 28  4  0
 15 25  2  0
 16 27  4  0
 17 18  4  0
 20 27  1  0
 24 27  4  0
 26 28  4  0
M  END
$$$$

 Created by Python create_sdf_string function

 29 33  0  0  0  0  0  0  0  0999 V2000
    8.8890   -7.0595   18.3849 C   0  0  0  0  0  0  0  0  0  0  0  0
    9.1399   -4.5935   15.8966 O   0  0  0  0  0  0  0  0  0  0  0  0
    9.1686   -5.9142   17.7073 C   0  0  0  0  0  0  0  0  0  0  0  0
    3.6393   -9.5278   16.0603 N   0  0  0  0  0  0  0  0  0  0  0  0
    9.9322   -4.8043   18.0513 N   0  0  0  0  0  0  0  0  0  0  0  0
    8.5807   -5.7268   16.4444 C   0  0  0  0  0  0  0  0  0  0  0  0
   10.5945   -4.8859   21.6304 C   0  0  0  0  0  0  0  0  0  0  0  0
   10.4147   -3.0079   23.1429 C   0  0  0  0  0  0  0  0  0  0  0  0
   10.2233   -3.4227   25.4788 C   0  0  0  0  0  0  0  0  0  0  0  0
    9.7440   -1.1919   24.5401 C   0  0  0  0  0  0  0  0  0  0  0  0
    5.0290   -8.4816   17.5422 C   0  0  0  0  0  0  0  0  0  0  0  0
    9.7846   -2.0848   25.6382 C   0  0  0  0  0  0  0  0  0  0  0  0
    5.6682   -8.7444   15.3430 C   0  0  0  0  0  0  0  0  0  0  0  0
   10.7333   -3.1125   19.4831 N   0  0  0  0  0  0  0  0  0  0  0  0
    9.9625   -4.0433   16.8985 C   0  0  0  0  0  0  0  0  0  0  0  0
    7.6129   -6.5345   16.0119 C   0  0  0  0  0  0  0  0  0  0  0  0
   10.8178   -2.6460   20.7438 C   0  0  0  0  0  0  0  0  0  0  0  0
   10.6166   -3.5008   21.8263 C   0  0  0  0  0  0  0  0  0  0  0  0
   10.5181   -3.8970   24.2207 C   0  0  0  0  0  0  0  0  0  0  0  0
    5.9480   -8.2653   16.5662 C   0  0  0  0  0  0  0  0  0  0  0  0
    3.8859   -9.0767   17.2467 C   0  0  0  0  0  0  0  0  0  0  0  0
   10.0983   -1.6605   23.2825 C   0  0  0  0  0  0  0  0  0  0  0  0
    9.4225   -1.6750   26.7754 F   0  0  0  0  0  0  0  0  0  0  0  0
    7.8497   -7.8206   17.9626 C   0  0  0  0  0  0  0  0  0  0  0  0
   10.6124   -3.0658   16.7808 O   0  0  0  0  0  0  0  0  0  0  0  0
   10.4369   -5.3637   20.3735 C   0  0  0  0  0  0  0  0  0  0  0  0
    7.1413   -7.5386   16.8223 C   0  0  0  0  0  0  0  0  0  0  0  0
   10.3859   -4.4396   19.2971 C   0  0  0  0  0  0  0  0  0  0  0  0
    4.5440   -9.4064   15.1062 C   0  0  0  0  0  0  0  0  0  0  0  0
  1  3  4  0
  1 24  4  0
  2  6  4  0
  2 15  4  0
  3  5  4  0
  3  6  4  0
  4 21  4  0
  4 29  4  0
  5 15  4  0
  5 28  1  0
  6 16  4  0
  7 18  4  0
  7 26  4  0
  8 18  1  0
  8 19  4  0
  8 22  4  0
  9 12  4  0
  9 19  4  0
 10 12  4  0
 10 22  4  0
 11 20  4  0
 11 21  4  0
 12 23  1  0
 13 20  4  0
 13 29  4  0
 14 17  4  0
 14 28  4  0
 15 25  2  0
 16 27  4  0
 17 18  4  0
 20 27  1  0
 24 27  4  0
 26 28  4  0
M  END
$$$$

 Created by Python create_sdf_string function

 29 36  0  0  0  0  0  0  0  0999 V2000
    8.8925   -7.0334   18.3937 C   0  0  0  0  0  0  0  0  0  0  0  0
    9.1431   -4.5860   15.9002 O   0  0  0  0  0  0  0  0  0  0  0  0
    9.1555   -5.9119   17.7105 C   0  0  0  0  0  0  0  0  0  0  0  0
    3.6320   -9.5343   16.0618 N   0  0  0  0  0  0  0  0  0  0  0  0
    9.9482   -4.8025   18.0472 N   0  0  0  0  0  0  0  0  0  0  0  0
    8.6108   -5.7266   16.4385 C   0  0  0  0  0  0  0  0  0  0  0  0
   10.5887   -4.8821   21.6400 C   0  0  0  0  0  0  0  0  0  0  0  0
   10.4199   -3.0044   23.1446 C   0  0  0  0  0  0  0  0  0  0  0  0
   10.2235   -3.4290   25.4915 C   0  0  0  0  0  0  0  0  0  0  0  0
    9.7562   -1.2070   24.5477 C   0  0  0  0  0  0  0  0  0  0  0  0
    5.0301   -8.4836   17.5469 C   0  0  0  0  0  0  0  0  0  0  0  0
    9.8028   -2.1094   25.6414 C   0  0  0  0  0  0  0  0  0  0  0  0
    5.6669   -8.7492   15.3232 C   0  0  0  0  0  0  0  0  0  0  0  0
   10.7452   -3.1115   19.4824 N   0  0  0  0  0  0  0  0  0  0  0  0
    9.9611   -4.0434   16.9011 C   0  0  0  0  0  0  0  0  0  0  0  0
    7.6047   -6.5316   15.9957 C   0  0  0  0  0  0  0  0  0  0  0  0
   10.8290   -2.6536   20.7446 C   0  0  0  0  0  0  0  0  0  0  0  0
   10.6284   -3.5071   21.8041 C   0  0  0  0  0  0  0  0  0  0  0  0
   10.4964   -3.8915   24.2200 C   0  0  0  0  0  0  0  0  0  0  0  0
    5.9465   -8.2638   16.5592 C   0  0  0  0  0  0  0  0  0  0  0  0
    3.8836   -9.0777   17.2483 C   0  0  0  0  0  0  0  0  0  0  0  0
   10.0891   -1.6540   23.2769 C   0  0  0  0  0  0  0  0  0  0  0  0
    9.4077   -1.6917   26.7738 F   0  0  0  0  0  0  0  0  0  0  0  0
    7.8438   -7.8161   17.9738 C   0  0  0  0  0  0  0  0  0  0  0  0
   10.6296   -3.0672   16.7828 O   0  0  0  0  0  0  0  0  0  0  0  0
   10.4516   -5.3788   20.3490 C   0  0  0  0  0  0  0  0  0  0  0  0
    7.1521   -7.5459   16.8301 C   0  0  0  0  0  0  0  0  0  0  0  0
   10.3826   -4.4457   19.2832 O   0  0  0  0  0  0  0  0  0  0  0  0
    4.5377   -9.4115   15.0955 C   0  0  0  0  0  0  0  0  0  0  0  0
  1  3  4  0
  1 24  4  0
  2  6  4  0
  2 15  4  0
  3  5  4  0
  3  6  4  0
  3 19  1  0
  4 21  4  0
  4 29  4  0
  5 15  4  0
  5 28  1  0
  6 16  4  0
  7 18  4  0
  7 26  4  0
  8 18  1  0
  8 19  4  0
  8 22  4  0
  9 12  4  0
  9 19  4  0
 10 12  4  0
 10 22  4  0
 11 20  4  0
 11 21  4  0
 12 23  1  0
 13 16  1  0
 13 20  4  0
 13 29  4  0
 14 17  4  0
 14 28  4  0
 15 22  4  0
 15 25  2  0
 16 27  4  0
 17 18  4  0
 20 27  1  0
 24 27  4  0
 26 28  4  0
M  END
$$$$

 Created by Python create_sdf_string function

 29 33  0  0  0  0  0  0  0  0999 V2000
    8.8601   -7.0393   18.4042 C   0  0  0  0  0  0  0  0  0  0  0  0
    9.1500   -4.5955   15.8925 O   0  0  0  0  0  0  0  0  0  0  0  0
    9.1610   -5.9123   17.7099 C   0  0  0  0  0  0  0  0  0  0  0  0
    3.6347   -9.5350   16.0613 N   0  0  0  0  0  0  0  0  0  0  0  0
    9.9303   -4.8005   18.0524 N   0  0  0  0  0  0  0  0  0  0  0  0
    8.5893   -5.7309   16.4343 C   0  0  0  0  0  0  0  0  0  0  0  0
   10.5951   -4.8976   21.6211 C   0  0  0  0  0  0  0  0  0  0  0  0
   10.4205   -3.0148   23.1300 C   0  0  0  0  0  0  0  0  0  0  0  0
   10.2206   -3.4364   25.4618 C   0  0  0  0  0  0  0  0  0  0  0  0
    9.7616   -1.2022   24.5324 C   0  0  0  0  0  0  0  0  0  0  0  0
    5.0261   -8.4987   17.5401 C   0  0  0  0  0  0  0  0  0  0  0  0
    9.8012   -2.0954   25.6247 C   0  0  0  0  0  0  0  0  0  0  0  0
    5.6685   -8.7316   15.3256 C   0  0  0  0  0  0  0  0  0  0  0  0
   10.7442   -3.1302   19.4745 N   0  0  0  0  0  0  0  0  0  0  0  0
    9.9648   -4.0479   16.9018 C   0  0  0  0  0  0  0  0  0  0  0  0
    7.6123   -6.5527   16.0044 C   0  0  0  0  0  0  0  0  0  0  0  0
   10.8395   -2.6489   20.7358 C   0  0  0  0  0  0  0  0  0  0  0  0
   10.6306   -3.5051   21.8162 C   0  0  0  0  0  0  0  0  0  0  0  0
   10.5020   -3.8933   24.1983 C   0  0  0  0  0  0  0  0  0  0  0  0
    5.9431   -8.2661   16.5592 C   0  0  0  0  0  0  0  0  0  0  0  0
    3.8781   -9.0942   17.2521 C   0  0  0  0  0  0  0  0  0  0  0  0
   10.1075   -1.6603   23.2678 C   0  0  0  0  0  0  0  0  0  0  0  0
    9.4342   -1.6985   26.7570 F   0  0  0  0  0  0  0  0  0  0  0  0
    7.8290   -7.8078   17.9768 C   0  0  0  0  0  0  0  0  0  0  0  0
   10.6089   -3.0702   16.7854 O   0  0  0  0  0  0  0  0  0  0  0  0
   10.4425   -5.3579   20.3458 C   0  0  0  0  0  0  0  0  0  0  0  0
    7.1299   -7.5454   16.8215 C   0  0  0  0  0  0  0  0  0  0  0  0
   10.3809   -4.4408   19.2801 C   0  0  0  0  0  0  0  0  0  0  0  0
    4.5319   -9.3991   15.0906 C   0  0  0  0  0  0  0  0  0  0  0  0
  1  3  4  0
  1 24  4  0
  2  6  4  0
  2 15  4  0
  3  5  4  0
  3  6  4  0
  4 21  4  0
  4 29  4  0
  5 15  4  0
  5 28  1  0
  6 16  4  0
  7 18  4  0
  7 26  4  0
  8 18  1  0
  8 19  4  0
  8 22  4  0
  9 12  4  0
  9 19  4  0
 10 12  4  0
 10 22  4  0
 11 20  4  0
 11 21  4  0
 12 23  1  0
 13 20  4  0
 13 29  4  0
 14 17  4  0
 14 28  4  0
 15 25  2  0
 16 27  4  0
 17 18  4  0
 20 27  1  0
 24 27  4  0
 26 28  4  0
M  END
$$$$

 Created by Python create_sdf_string function

 29 34  0  0  0  0  0  0  0  0999 V2000
    8.8645   -7.0311   18.4102 C   0  0  0  0  0  0  0  0  0  0  0  0
    9.1595   -4.5951   15.8914 O   0  0  0  0  0  0  0  0  0  0  0  0
    9.1619   -5.9190   17.7121 C   0  0  0  0  0  0  0  0  0  0  0  0
    3.6412   -9.5228   16.0564 N   0  0  0  0  0  0  0  0  0  0  0  0
    9.9232   -4.8127   18.0584 N   0  0  0  0  0  0  0  0  0  0  0  0
    8.5931   -5.7373   16.4327 C   0  0  0  0  0  0  0  0  0  0  0  0
   10.5797   -4.8983   21.6133 C   0  0  0  0  0  0  0  0  0  0  0  0
   10.4151   -3.0151   23.1317 C   0  0  0  0  0  0  0  0  0  0  0  0
   10.2232   -3.4377   25.4576 C   0  0  0  0  0  0  0  0  0  0  0  0
    9.7674   -1.1897   24.5384 C   0  0  0  0  0  0  0  0  0  0  0  0
    5.0255   -8.4970   17.5373 C   0  0  0  0  0  0  0  0  0  0  0  0
    9.8019   -2.0913   25.6203 C   0  0  0  0  0  0  0  0  0  0  0  0
    5.6699   -8.7337   15.3152 C   0  0  0  0  0  0  0  0  0  0  0  0
   10.7325   -3.1297   19.4785 N   0  0  0  0  0  0  0  0  0  0  0  0
    9.9643   -4.0496   16.8950 C   0  0  0  0  0  0  0  0  0  0  0  0
    7.6061   -6.5427   16.0140 C   0  0  0  0  0  0  0  0  0  0  0  0
   10.8461   -2.6449   20.7313 C   0  0  0  0  0  0  0  0  0  0  0  0
   10.6294   -3.4910   21.8219 C   0  0  0  0  0  0  0  0  0  0  0  0
   10.4989   -3.8899   24.2024 C   0  0  0  0  0  0  0  0  0  0  0  0
    5.9455   -8.2603   16.5662 C   0  0  0  0  0  0  0  0  0  0  0  0
    3.8786   -9.0939   17.2586 C   0  0  0  0  0  0  0  0  0  0  0  0
   10.1083   -1.6691   23.2665 C   0  0  0  0  0  0  0  0  0  0  0  0
    9.4292   -1.6949   26.7597 F   0  0  0  0  0  0  0  0  0  0  0  0
    7.8276   -7.8061   17.9710 C   0  0  0  0  0  0  0  0  0  0  0  0
   10.6060   -3.0686   16.7729 O   0  0  0  0  0  0  0  0  0  0  0  0
   10.4421   -5.3582   20.3334 C   0  0  0  0  0  0  0  0  0  0  0  0
    7.1404   -7.5478   16.8189 C   0  0  0  0  0  0  0  0  0  0  0  0
   10.3927   -4.4255   19.2874 C   0  0  0  0  0  0  0  0  0  0  0  0
    4.5272   -9.4074   15.0975 C   0  0  0  0  0  0  0  0  0  0  0  0
  1  3  4  0
  1 24  4  0
  2  6  4  0
  2 15  4  0
  3  5  4  0
  3  6  4  0
  4 21  4  0
  4 29  4  0
  5 15  4  0
  5 28  1  0
  6 16  4  0
  7  8  4  0
  7 18  4  0
  7 26  4  0
  8 18  1  0
  8 19  4  0
  8 22  4  0
  9 12  4  0
  9 19  4  0
 10 12  4  0
 10 22  4  0
 11 20  4  0
 11 21  4  0
 12 23  1  0
 13 20  4  0
 13 29  4  0
 14 17  4  0
 14 28  4  0
 15 25  2  0
 16 27  4  0
 17 18  4  0
 20 27  1  0
 24 27  4  0
 26 28  4  0
M  END
$$$$

 Created by Python create_sdf_string function

 29 33  0  0  0  0  0  0  0  0999 V2000
    8.8430   -7.0369   18.4198 C   0  0  0  0  0  0  0  0  0  0  0  0
    9.1586   -4.6135   15.8920 O   0  0  0  0  0  0  0  0  0  0  0  0
    9.1562   -5.9158   17.7169 C   0  0  0  0  0  0  0  0  0  0  0  0
    3.6385   -9.5302   16.0564 N   0  0  0  0  0  0  0  0  0  0  0  0
    9.9278   -4.8028   18.0456 N   0  0  0  0  0  0  0  0  0  0  0  0
    8.5894   -5.7390   16.4397 C   0  0  0  0  0  0  0  0  0  0  0  0
   10.5918   -4.8949   21.6095 C   0  0  0  0  0  0  0  0  0  0  0  0
   10.4215   -3.0103   23.1199 C   0  0  0  0  0  0  0  0  0  0  0  0
   10.2168   -3.4351   25.4389 C   0  0  0  0  0  0  0  0  0  0  0  0
    9.7737   -1.1859   24.5145 C   0  0  0  0  0  0  0  0  0  0  0  0
    5.0239   -8.5105   17.5376 C   0  0  0  0  0  0  0  0  0  0  0  0
    9.8076   -2.0916   25.6022 C   0  0  0  0  0  0  0  0  0  0  0  0
    5.6592   -8.7271   15.3215 C   0  0  0  0  0  0  0  0  0  0  0  0
   10.7487   -3.1186   19.4774 N   0  0  0  0  0  0  0  0  0  0  0  0
    9.9609   -4.0534   16.8924 C   0  0  0  0  0  0  0  0  0  0  0  0
    7.6159   -6.5515   16.0065 C   0  0  0  0  0  0  0  0  0  0  0  0
   10.8517   -2.6518   20.7270 C   0  0  0  0  0  0  0  0  0  0  0  0
   10.6339   -3.5041   21.8098 C   0  0  0  0  0  0  0  0  0  0  0  0
   10.5002   -3.8957   24.1790 C   0  0  0  0  0  0  0  0  0  0  0  0
    5.9351   -8.2691   16.5543 C   0  0  0  0  0  0  0  0  0  0  0  0
    3.8784   -9.1067   17.2522 C   0  0  0  0  0  0  0  0  0  0  0  0
   10.1209   -1.6597   23.2526 C   0  0  0  0  0  0  0  0  0  0  0  0
    9.4502   -1.6981   26.7442 F   0  0  0  0  0  0  0  0  0  0  0  0
    7.8160   -7.8001   17.9781 C   0  0  0  0  0  0  0  0  0  0  0  0
   10.5937   -3.0711   16.7812 O   0  0  0  0  0  0  0  0  0  0  0  0
   10.4332   -5.3483   20.3560 C   0  0  0  0  0  0  0  0  0  0  0  0
    7.1230   -7.5430   16.8207 C   0  0  0  0  0  0  0  0  0  0  0  0
   10.3876   -4.4329   19.2799 C   0  0  0  0  0  0  0  0  0  0  0  0
    4.5295   -9.3910   15.0848 C   0  0  0  0  0  0  0  0  0  0  0  0
  1  3  4  0
  1 24  4  0
  2  6  4  0
  2 15  4  0
  3  5  4  0
  3  6  4  0
  4 21  4  0
  4 29  4  0
  5 15  4  0
  5 28  1  0
  6 16  4  0
  7 18  4  0
  7 26  4  0
  8 18  1  0
  8 19  4  0
  8 22  4  0
  9 12  4  0
  9 19  4  0
 10 12  4  0
 10 22  4  0
 11 20  4  0
 11 21  4  0
 12 23  1  0
 13 20  4  0
 13 29  4  0
 14 17  4  0
 14 28  4  0
 15 25  2  0
 16 27  4  0
 17 18  4  0
 20 27  1  0
 24 27  4  0
 26 28  4  0
M  END
$$$$

 Created by Python create_sdf_string function

 29 33  0  0  0  0  0  0  0  0999 V2000
    8.8386   -7.0372   18.4193 C   0  0  0  0  0  0  0  0  0  0  0  0
    9.1552   -4.6134   15.8919 O   0  0  0  0  0  0  0  0  0  0  0  0
    9.1610   -5.9165   17.7180 C   0  0  0  0  0  0  0  0  0  0  0  0
    3.6370   -9.5332   16.0620 N   0  0  0  0  0  0  0  0  0  0  0  0
    9.9324   -4.7985   18.0449 N   0  0  0  0  0  0  0  0  0  0  0  0
    8.5894   -5.7391   16.4361 C   0  0  0  0  0  0  0  0  0  0  0  0
   10.5904   -4.8945   21.6069 C   0  0  0  0  0  0  0  0  0  0  0  0
   10.4143   -3.0098   23.1149 C   0  0  0  0  0  0  0  0  0  0  0  0
   10.2160   -3.4316   25.4420 C   0  0  0  0  0  0  0  0  0  0  0  0
    9.7768   -1.1817   24.5145 C   0  0  0  0  0  0  0  0  0  0  0  0
    5.0295   -8.5101   17.5386 C   0  0  0  0  0  0  0  0  0  0  0  0
    9.8152   -2.0911   25.6021 C   0  0  0  0  0  0  0  0  0  0  0  0
    5.6571   -8.7303   15.3196 C   0  0  0  0  0  0  0  0  0  0  0  0
   10.7498   -3.1208   19.4740 N   0  0  0  0  0  0  0  0  0  0  0  0
    9.9612   -4.0552   16.8901 C   0  0  0  0  0  0  0  0  0  0  0  0
    7.6185   -6.5528   16.0067 C   0  0  0  0  0  0  0  0  0  0  0  0
   10.8517   -2.6532   20.7232 C   0  0  0  0  0  0  0  0  0  0  0  0
   10.6303   -3.5007   21.8108 C   0  0  0  0  0  0  0  0  0  0  0  0
   10.5005   -3.8955   24.1784 C   0  0  0  0  0  0  0  0  0  0  0  0
    5.9339   -8.2719   16.5474 C   0  0  0  0  0  0  0  0  0  0  0  0
    3.8786   -9.1029   17.2487 C   0  0  0  0  0  0  0  0  0  0  0  0
   10.1155   -1.6584   23.2547 C   0  0  0  0  0  0  0  0  0  0  0  0
    9.4493   -1.6930   26.7419 F   0  0  0  0  0  0  0  0  0  0  0  0
    7.8134   -7.7988   17.9784 C   0  0  0  0  0  0  0  0  0  0  0  0
   10.5983   -3.0737   16.7863 O   0  0  0  0  0  0  0  0  0  0  0  0
   10.4359   -5.3483   20.3534 C   0  0  0  0  0  0  0  0  0  0  0  0
    7.1237   -7.5476   16.8195 C   0  0  0  0  0  0  0  0  0  0  0  0
   10.3895   -4.4360   19.2781 C   0  0  0  0  0  0  0  0  0  0  0  0
    4.5263   -9.3911   15.0850 C   0  0  0  0  0  0  0  0  0  0  0  0
  1  3  4  0
  1 24  4  0
  2  6  4  0
  2 15  4  0
  3  5  4  0
  3  6  4  0
  4 21  4  0
  4 29  4  0
  5 15  4  0
  5 28  1  0
  6 16  4  0
  7 18  4  0
  7 26  4  0
  8 18  1  0
  8 19  4  0
  8 22  4  0
  9 12  4  0
  9 19  4  0
 10 12  4  0
 10 22  4  0
 11 20  4  0
 11 21  4  0
 12 23  1  0
 13 20  4  0
 13 29  4  0
 14 17  4  0
 14 28  4  0
 15 25  2  0
 16 27  4  0
 17 18  4  0
 20 27  1  0
 24 27  4  0
 26 28  4  0
M  END
$$$$

 Created by Python create_sdf_string function

 29 33  0  0  0  0  0  0  0  0999 V2000
    8.8270   -7.0288   18.4251 C   0  0  0  0  0  0  0  0  0  0  0  0
    9.1576   -4.6236   15.8860 O   0  0  0  0  0  0  0  0  0  0  0  0
    9.1509   -5.9108   17.7177 C   0  0  0  0  0  0  0  0  0  0  0  0
    3.6373   -9.5349   16.0582 N   0  0  0  0  0  0  0  0  0  0  0  0
    9.9275   -4.8001   18.0438 N   0  0  0  0  0  0  0  0  0  0  0  0
    8.5908   -5.7425   16.4412 C   0  0  0  0  0  0  0  0  0  0  0  0
   10.5993   -4.8981   21.6068 C   0  0  0  0  0  0  0  0  0  0  0  0
   10.4258   -3.0106   23.0998 C   0  0  0  0  0  0  0  0  0  0  0  0
   10.2148   -3.4364   25.4200 C   0  0  0  0  0  0  0  0  0  0  0  0
    9.7853   -1.1840   24.4927 C   0  0  0  0  0  0  0  0  0  0  0  0
    5.0276   -8.5227   17.5352 C   0  0  0  0  0  0  0  0  0  0  0  0
    9.8187   -2.0895   25.5800 C   0  0  0  0  0  0  0  0  0  0  0  0
    5.6473   -8.7216   15.3158 C   0  0  0  0  0  0  0  0  0  0  0  0
   10.7581   -3.1233   19.4720 N   0  0  0  0  0  0  0  0  0  0  0  0
    9.9571   -4.0573   16.8866 C   0  0  0  0  0  0  0  0  0  0  0  0
    7.6213   -6.5618   16.0087 C   0  0  0  0  0  0  0  0  0  0  0  0
   10.8583   -2.6527   20.7222 C   0  0  0  0  0  0  0  0  0  0  0  0
   10.6412   -3.5089   21.7936 C   0  0  0  0  0  0  0  0  0  0  0  0
   10.4972   -3.8968   24.1589 C   0  0  0  0  0  0  0  0  0  0  0  0
    5.9260   -8.2736   16.5517 C   0  0  0  0  0  0  0  0  0  0  0  0
    3.8816   -9.1166   17.2493 C   0  0  0  0  0  0  0  0  0  0  0  0
   10.1297   -1.6575   23.2324 C   0  0  0  0  0  0  0  0  0  0  0  0
    9.4684   -1.6929   26.7263 F   0  0  0  0  0  0  0  0  0  0  0  0
    7.7963   -7.7906   17.9837 C   0  0  0  0  0  0  0  0  0  0  0  0
   10.5884   -3.0725   16.7902 O   0  0  0  0  0  0  0  0  0  0  0  0
   10.4323   -5.3494   20.3516 C   0  0  0  0  0  0  0  0  0  0  0  0
    7.1156   -7.5454   16.8218 C   0  0  0  0  0  0  0  0  0  0  0  0
   10.3885   -4.4388   19.2773 C   0  0  0  0  0  0  0  0  0  0  0  0
    4.5160   -9.3822   15.0841 C   0  0  0  0  0  0  0  0  0  0  0  0
  1  3  4  0
  1 24  4  0
  2  6  4  0
  2 15  4  0
  3  5  4  0
  3  6  4  0
  4 21  4  0
  4 29  4  0
  5 15  4  0
  5 28  1  0
  6 16  4  0
  7 18  4  0
  7 26  4  0
  8 18  1  0
  8 19  4  0
  8 22  4  0
  9 12  4  0
  9 19  4  0
 10 12  4  0
 10 22  4  0
 11 20  4  0
 11 21  4  0
 12 23  1  0
 13 20  4  0
 13 29  4  0
 14 17  4  0
 14 28  4  0
 15 25  2  0
 16 27  4  0
 17 18  4  0
 20 27  1  0
 24 27  4  0
 26 28  4  0
M  END
$$$$

 Created by Python create_sdf_string function

 29 33  0  0  0  0  0  0  0  0999 V2000
    8.8270   -7.0288   18.4251 C   0  0  0  0  0  0  0  0  0  0  0  0
    9.1576   -4.6236   15.8860 O   0  0  0  0  0  0  0  0  0  0  0  0
    9.1509   -5.9108   17.7177 C   0  0  0  0  0  0  0  0  0  0  0  0
    3.6373   -9.5349   16.0582 N   0  0  0  0  0  0  0  0  0  0  0  0
    9.9275   -4.8001   18.0438 N   0  0  0  0  0  0  0  0  0  0  0  0
    8.5908   -5.7425   16.4412 C   0  0  0  0  0  0  0  0  0  0  0  0
   10.5993   -4.8981   21.6068 C   0  0  0  0  0  0  0  0  0  0  0  0
   10.4258   -3.0106   23.0998 C   0  0  0  0  0  0  0  0  0  0  0  0
   10.2148   -3.4364   25.4200 C   0  0  0  0  0  0  0  0  0  0  0  0
    9.7853   -1.1840   24.4927 C   0  0  0  0  0  0  0  0  0  0  0  0
    5.0276   -8.5227   17.5352 C   0  0  0  0  0  0  0  0  0  0  0  0
    9.8187   -2.0895   25.5800 C   0  0  0  0  0  0  0  0  0  0  0  0
    5.6473   -8.7216   15.3158 C   0  0  0  0  0  0  0  0  0  0  0  0
   10.7581   -3.1233   19.4720 N   0  0  0  0  0  0  0  0  0  0  0  0
    9.9571   -4.0573   16.8866 C   0  0  0  0  0  0  0  0  0  0  0  0
    7.6213   -6.5618   16.0087 C   0  0  0  0  0  0  0  0  0  0  0  0
   10.8583   -2.6527   20.7222 C   0  0  0  0  0  0  0  0  0  0  0  0
   10.6412   -3.5089   21.7936 C   0  0  0  0  0  0  0  0  0  0  0  0
   10.4972   -3.8968   24.1589 C   0  0  0  0  0  0  0  0  0  0  0  0
    5.9260   -8.2736   16.5517 C   0  0  0  0  0  0  0  0  0  0  0  0
    3.8816   -9.1166   17.2493 C   0  0  0  0  0  0  0  0  0  0  0  0
   10.1297   -1.6575   23.2324 C   0  0  0  0  0  0  0  0  0  0  0  0
    9.4684   -1.6929   26.7263 F   0  0  0  0  0  0  0  0  0  0  0  0
    7.7963   -7.7906   17.9837 C   0  0  0  0  0  0  0  0  0  0  0  0
   10.5884   -3.0725   16.7902 O   0  0  0  0  0  0  0  0  0  0  0  0
   10.4323   -5.3494   20.3516 C   0  0  0  0  0  0  0  0  0  0  0  0
    7.1156   -7.5454   16.8218 C   0  0  0  0  0  0  0  0  0  0  0  0
   10.3885   -4.4388   19.2773 C   0  0  0  0  0  0  0  0  0  0  0  0
    4.5160   -9.3822   15.0841 C   0  0  0  0  0  0  0  0  0  0  0  0
  1  3  4  0
  1 24  4  0
  2  6  4  0
  2 15  4  0
  3  5  4  0
  3  6  4  0
  4 21  4  0
  4 29  4  0
  5 15  4  0
  5 28  1  0
  6 16  4  0
  7 18  4  0
  7 26  4  0
  8 18  1  0
  8 19  4  0
  8 22  4  0
  9 12  4  0
  9 19  4  0
 10 12  4  0
 10 22  4  0
 11 20  4  0
 11 21  4  0
 12 23  1  0
 13 20  4  0
 13 29  4  0
 14 17  4  0
 14 28  4  0
 15 25  2  0
 16 27  4  0
 17 18  4  0
 20 27  1  0
 24 27  4  0
 26 28  4  0
M  END
$$$$

 Created by Python create_sdf_string function

 29 33  0  0  0  0  0  0  0  0999 V2000
    8.8270   -7.0288   18.4251 C   0  0  0  0  0  0  0  0  0  0  0  0
    9.1576   -4.6236   15.8860 O   0  0  0  0  0  0  0  0  0  0  0  0
    9.1509   -5.9108   17.7177 C   0  0  0  0  0  0  0  0  0  0  0  0
    3.6373   -9.5349   16.0582 N   0  0  0  0  0  0  0  0  0  0  0  0
    9.9275   -4.8001   18.0438 N   0  0  0  0  0  0  0  0  0  0  0  0
    8.5908   -5.7425   16.4412 C   0  0  0  0  0  0  0  0  0  0  0  0
   10.5993   -4.8981   21.6068 C   0  0  0  0  0  0  0  0  0  0  0  0
   10.4258   -3.0106   23.0998 C   0  0  0  0  0  0  0  0  0  0  0  0
   10.2148   -3.4364   25.4200 C   0  0  0  0  0  0  0  0  0  0  0  0
    9.7853   -1.1840   24.4927 C   0  0  0  0  0  0  0  0  0  0  0  0
    5.0276   -8.5227   17.5352 C   0  0  0  0  0  0  0  0  0  0  0  0
    9.8187   -2.0895   25.5800 C   0  0  0  0  0  0  0  0  0  0  0  0
    5.6473   -8.7216   15.3158 C   0  0  0  0  0  0  0  0  0  0  0  0
   10.7581   -3.1233   19.4720 N   0  0  0  0  0  0  0  0  0  0  0  0
    9.9571   -4.0573   16.8866 C   0  0  0  0  0  0  0  0  0  0  0  0
    7.6213   -6.5618   16.0087 C   0  0  0  0  0  0  0  0  0  0  0  0
   10.8583   -2.6527   20.7222 C   0  0  0  0  0  0  0  0  0  0  0  0
   10.6412   -3.5089   21.7936 C   0  0  0  0  0  0  0  0  0  0  0  0
   10.4972   -3.8968   24.1589 C   0  0  0  0  0  0  0  0  0  0  0  0
    5.9260   -8.2736   16.5517 C   0  0  0  0  0  0  0  0  0  0  0  0
    3.8816   -9.1166   17.2493 C   0  0  0  0  0  0  0  0  0  0  0  0
   10.1297   -1.6575   23.2324 C   0  0  0  0  0  0  0  0  0  0  0  0
    9.4684   -1.6929   26.7263 F   0  0  0  0  0  0  0  0  0  0  0  0
    7.7963   -7.7906   17.9837 C   0  0  0  0  0  0  0  0  0  0  0  0
   10.5884   -3.0725   16.7902 O   0  0  0  0  0  0  0  0  0  0  0  0
   10.4323   -5.3494   20.3516 C   0  0  0  0  0  0  0  0  0  0  0  0
    7.1156   -7.5454   16.8218 C   0  0  0  0  0  0  0  0  0  0  0  0
   10.3885   -4.4388   19.2773 C   0  0  0  0  0  0  0  0  0  0  0  0
    4.5160   -9.3822   15.0841 C   0  0  0  0  0  0  0  0  0  0  0  0
  1  3  4  0
  1 24  4  0
  2  6  4  0
  2 15  4  0
  3  5  4  0
  3  6  4  0
  4 21  4  0
  4 29  4  0
  5 15  4  0
  5 28  1  0
  6 16  4  0
  7 18  4  0
  7 26  4  0
  8 18  1  0
  8 19  4  0
  8 22  4  0
  9 12  4  0
  9 19  4  0
 10 12  4  0
 10 22  4  0
 11 20  4  0
 11 21  4  0
 12 23  1  0
 13 20  4  0
 13 29  4  0
 14 17  4  0
 14 28  4  0
 15 25  2  0
 16 27  4  0
 17 18  4  0
 20 27  1  0
 24 27  4  0
 26 28  4  0
M  END
$$$$

 Created by Python create_sdf_string function

 29 33  0  0  0  0  0  0  0  0999 V2000
    8.8270   -7.0288   18.4251 C   0  0  0  0  0  0  0  0  0  0  0  0
    9.1576   -4.6236   15.8860 O   0  0  0  0  0  0  0  0  0  0  0  0
    9.1509   -5.9108   17.7177 C   0  0  0  0  0  0  0  0  0  0  0  0
    3.6373   -9.5349   16.0582 N   0  0  0  0  0  0  0  0  0  0  0  0
    9.9275   -4.8001   18.0438 N   0  0  0  0  0  0  0  0  0  0  0  0
    8.5908   -5.7425   16.4412 C   0  0  0  0  0  0  0  0  0  0  0  0
   10.5993   -4.8981   21.6068 C   0  0  0  0  0  0  0  0  0  0  0  0
   10.4258   -3.0106   23.0998 C   0  0  0  0  0  0  0  0  0  0  0  0
   10.2148   -3.4364   25.4200 C   0  0  0  0  0  0  0  0  0  0  0  0
    9.7853   -1.1840   24.4927 C   0  0  0  0  0  0  0  0  0  0  0  0
    5.0276   -8.5227   17.5352 C   0  0  0  0  0  0  0  0  0  0  0  0
    9.8187   -2.0895   25.5800 C   0  0  0  0  0  0  0  0  0  0  0  0
    5.6473   -8.7216   15.3158 C   0  0  0  0  0  0  0  0  0  0  0  0
   10.7581   -3.1233   19.4720 N   0  0  0  0  0  0  0  0  0  0  0  0
    9.9571   -4.0573   16.8866 C   0  0  0  0  0  0  0  0  0  0  0  0
    7.6213   -6.5618   16.0087 C   0  0  0  0  0  0  0  0  0  0  0  0
   10.8583   -2.6527   20.7222 C   0  0  0  0  0  0  0  0  0  0  0  0
   10.6412   -3.5089   21.7936 C   0  0  0  0  0  0  0  0  0  0  0  0
   10.4972   -3.8968   24.1589 C   0  0  0  0  0  0  0  0  0  0  0  0
    5.9260   -8.2736   16.5517 C   0  0  0  0  0  0  0  0  0  0  0  0
    3.8816   -9.1166   17.2493 C   0  0  0  0  0  0  0  0  0  0  0  0
   10.1297   -1.6575   23.2324 C   0  0  0  0  0  0  0  0  0  0  0  0
    9.4684   -1.6929   26.7263 F   0  0  0  0  0  0  0  0  0  0  0  0
    7.7963   -7.7906   17.9837 C   0  0  0  0  0  0  0  0  0  0  0  0
   10.5884   -3.0725   16.7902 O   0  0  0  0  0  0  0  0  0  0  0  0
   10.4323   -5.3494   20.3516 C   0  0  0  0  0  0  0  0  0  0  0  0
    7.1156   -7.5454   16.8218 C   0  0  0  0  0  0  0  0  0  0  0  0
   10.3885   -4.4388   19.2773 C   0  0  0  0  0  0  0  0  0  0  0  0
    4.5160   -9.3822   15.0841 C   0  0  0  0  0  0  0  0  0  0  0  0
  1  3  4  0
  1 24  4  0
  2  6  4  0
  2 15  4  0
  3  5  4  0
  3  6  4  0
  4 21  4  0
  4 29  4  0
  5 15  4  0
  5 28  1  0
  6 16  4  0
  7 18  4  0
  7 26  4  0
  8 18  1  0
  8 19  4  0
  8 22  4  0
  9 12  4  0
  9 19  4  0
 10 12  4  0
 10 22  4  0
 11 20  4  0
 11 21  4  0
 12 23  1  0
 13 20  4  0
 13 29  4  0
 14 17  4  0
 14 28  4  0
 15 25  2  0
 16 27  4  0
 17 18  4  0
 20 27  1  0
 24 27  4  0
 26 28  4  0
M  END
$$$$

 Created by Python create_sdf_string function

 29 33  0  0  0  0  0  0  0  0999 V2000
    8.8270   -7.0288   18.4251 C   0  0  0  0  0  0  0  0  0  0  0  0
    9.1576   -4.6236   15.8860 O   0  0  0  0  0  0  0  0  0  0  0  0
    9.1509   -5.9108   17.7177 C   0  0  0  0  0  0  0  0  0  0  0  0
    3.6373   -9.5349   16.0582 N   0  0  0  0  0  0  0  0  0  0  0  0
    9.9275   -4.8001   18.0438 N   0  0  0  0  0  0  0  0  0  0  0  0
    8.5908   -5.7425   16.4412 C   0  0  0  0  0  0  0  0  0  0  0  0
   10.5993   -4.8981   21.6068 C   0  0  0  0  0  0  0  0  0  0  0  0
   10.4258   -3.0106   23.0998 C   0  0  0  0  0  0  0  0  0  0  0  0
   10.2148   -3.4364   25.4200 C   0  0  0  0  0  0  0  0  0  0  0  0
    9.7853   -1.1840   24.4927 C   0  0  0  0  0  0  0  0  0  0  0  0
    5.0276   -8.5227   17.5352 C   0  0  0  0  0  0  0  0  0  0  0  0
    9.8187   -2.0895   25.5800 C   0  0  0  0  0  0  0  0  0  0  0  0
    5.6473   -8.7216   15.3158 C   0  0  0  0  0  0  0  0  0  0  0  0
   10.7581   -3.1233   19.4720 N   0  0  0  0  0  0  0  0  0  0  0  0
    9.9571   -4.0573   16.8866 C   0  0  0  0  0  0  0  0  0  0  0  0
    7.6213   -6.5618   16.0087 C   0  0  0  0  0  0  0  0  0  0  0  0
   10.8583   -2.6527   20.7222 C   0  0  0  0  0  0  0  0  0  0  0  0
   10.6412   -3.5089   21.7936 C   0  0  0  0  0  0  0  0  0  0  0  0
   10.4972   -3.8968   24.1589 C   0  0  0  0  0  0  0  0  0  0  0  0
    5.9260   -8.2736   16.5517 C   0  0  0  0  0  0  0  0  0  0  0  0
    3.8816   -9.1166   17.2493 C   0  0  0  0  0  0  0  0  0  0  0  0
   10.1297   -1.6575   23.2324 C   0  0  0  0  0  0  0  0  0  0  0  0
    9.4684   -1.6929   26.7263 F   0  0  0  0  0  0  0  0  0  0  0  0
    7.7963   -7.7906   17.9837 C   0  0  0  0  0  0  0  0  0  0  0  0
   10.5884   -3.0725   16.7902 O   0  0  0  0  0  0  0  0  0  0  0  0
   10.4323   -5.3494   20.3516 C   0  0  0  0  0  0  0  0  0  0  0  0
    7.1156   -7.5454   16.8218 C   0  0  0  0  0  0  0  0  0  0  0  0
   10.3885   -4.4388   19.2773 C   0  0  0  0  0  0  0  0  0  0  0  0
    4.5160   -9.3822   15.0841 C   0  0  0  0  0  0  0  0  0  0  0  0
  1  3  4  0
  1 24  4  0
  2  6  4  0
  2 15  4  0
  3  5  4  0
  3  6  4  0
  4 21  4  0
  4 29  4  0
  5 15  4  0
  5 28  1  0
  6 16  4  0
  7 18  4  0
  7 26  4  0
  8 18  1  0
  8 19  4  0
  8 22  4  0
  9 12  4  0
  9 19  4  0
 10 12  4  0
 10 22  4  0
 11 20  4  0
 11 21  4  0
 12 23  1  0
 13 20  4  0
 13 29  4  0
 14 17  4  0
 14 28  4  0
 15 25  2  0
 16 27  4  0
 17 18  4  0
 20 27  1  0
 24 27  4  0
 26 28  4  0
M  END
$$$$

 Created by Python create_sdf_string function

 29 33  0  0  0  0  0  0  0  0999 V2000
    8.8270   -7.0288   18.4251 C   0  0  0  0  0  0  0  0  0  0  0  0
    9.1576   -4.6236   15.8860 O   0  0  0  0  0  0  0  0  0  0  0  0
    9.1509   -5.9108   17.7177 C   0  0  0  0  0  0  0  0  0  0  0  0
    3.6373   -9.5349   16.0582 N   0  0  0  0  0  0  0  0  0  0  0  0
    9.9275   -4.8001   18.0438 N   0  0  0  0  0  0  0  0  0  0  0  0
    8.5908   -5.7425   16.4412 C   0  0  0  0  0  0  0  0  0  0  0  0
   10.5993   -4.8981   21.6068 C   0  0  0  0  0  0  0  0  0  0  0  0
   10.4258   -3.0106   23.0998 C   0  0  0  0  0  0  0  0  0  0  0  0
   10.2148   -3.4364   25.4200 C   0  0  0  0  0  0  0  0  0  0  0  0
    9.7853   -1.1840   24.4927 C   0  0  0  0  0  0  0  0  0  0  0  0
    5.0276   -8.5227   17.5352 C   0  0  0  0  0  0  0  0  0  0  0  0
    9.8187   -2.0895   25.5800 C   0  0  0  0  0  0  0  0  0  0  0  0
    5.6473   -8.7216   15.3158 C   0  0  0  0  0  0  0  0  0  0  0  0
   10.7581   -3.1233   19.4720 N   0  0  0  0  0  0  0  0  0  0  0  0
    9.9571   -4.0573   16.8866 C   0  0  0  0  0  0  0  0  0  0  0  0
    7.6213   -6.5618   16.0087 C   0  0  0  0  0  0  0  0  0  0  0  0
   10.8583   -2.6527   20.7222 C   0  0  0  0  0  0  0  0  0  0  0  0
   10.6412   -3.5089   21.7936 C   0  0  0  0  0  0  0  0  0  0  0  0
   10.4972   -3.8968   24.1589 C   0  0  0  0  0  0  0  0  0  0  0  0
    5.9260   -8.2736   16.5517 C   0  0  0  0  0  0  0  0  0  0  0  0
    3.8816   -9.1166   17.2493 C   0  0  0  0  0  0  0  0  0  0  0  0
   10.1297   -1.6575   23.2324 C   0  0  0  0  0  0  0  0  0  0  0  0
    9.4684   -1.6929   26.7263 F   0  0  0  0  0  0  0  0  0  0  0  0
    7.7963   -7.7906   17.9837 C   0  0  0  0  0  0  0  0  0  0  0  0
   10.5884   -3.0725   16.7902 O   0  0  0  0  0  0  0  0  0  0  0  0
   10.4323   -5.3494   20.3516 C   0  0  0  0  0  0  0  0  0  0  0  0
    7.1156   -7.5454   16.8218 C   0  0  0  0  0  0  0  0  0  0  0  0
   10.3885   -4.4388   19.2773 C   0  0  0  0  0  0  0  0  0  0  0  0
    4.5160   -9.3822   15.0841 C   0  0  0  0  0  0  0  0  0  0  0  0
  1  3  4  0
  1 24  4  0
  2  6  4  0
  2 15  4  0
  3  5  4  0
  3  6  4  0
  4 21  4  0
  4 29  4  0
  5 15  4  0
  5 28  1  0
  6 16  4  0
  7 18  4  0
  7 26  4  0
  8 18  1  0
  8 19  4  0
  8 22  4  0
  9 12  4  0
  9 19  4  0
 10 12  4  0
 10 22  4  0
 11 20  4  0
 11 21  4  0
 12 23  1  0
 13 20  4  0
 13 29  4  0
 14 17  4  0
 14 28  4  0
 15 25  2  0
 16 27  4  0
 17 18  4  0
 20 27  1  0
 24 27  4  0
 26 28  4  0
M  END
$$$$

 Created by Python create_sdf_string function

 29 33  0  0  0  0  0  0  0  0999 V2000
    8.8270   -7.0288   18.4251 C   0  0  0  0  0  0  0  0  0  0  0  0
    9.1576   -4.6236   15.8860 O   0  0  0  0  0  0  0  0  0  0  0  0
    9.1509   -5.9108   17.7177 C   0  0  0  0  0  0  0  0  0  0  0  0
    3.6373   -9.5349   16.0582 N   0  0  0  0  0  0  0  0  0  0  0  0
    9.9275   -4.8001   18.0438 N   0  0  0  0  0  0  0  0  0  0  0  0
    8.5908   -5.7425   16.4412 C   0  0  0  0  0  0  0  0  0  0  0  0
   10.5993   -4.8981   21.6068 C   0  0  0  0  0  0  0  0  0  0  0  0
   10.4258   -3.0106   23.0998 C   0  0  0  0  0  0  0  0  0  0  0  0
   10.2148   -3.4364   25.4200 C   0  0  0  0  0  0  0  0  0  0  0  0
    9.7853   -1.1840   24.4927 C   0  0  0  0  0  0  0  0  0  0  0  0
    5.0276   -8.5227   17.5352 C   0  0  0  0  0  0  0  0  0  0  0  0
    9.8187   -2.0895   25.5800 C   0  0  0  0  0  0  0  0  0  0  0  0
    5.6473   -8.7216   15.3158 C   0  0  0  0  0  0  0  0  0  0  0  0
   10.7581   -3.1233   19.4720 N   0  0  0  0  0  0  0  0  0  0  0  0
    9.9571   -4.0573   16.8866 C   0  0  0  0  0  0  0  0  0  0  0  0
    7.6213   -6.5618   16.0087 C   0  0  0  0  0  0  0  0  0  0  0  0
   10.8583   -2.6527   20.7222 C   0  0  0  0  0  0  0  0  0  0  0  0
   10.6412   -3.5089   21.7936 C   0  0  0  0  0  0  0  0  0  0  0  0
   10.4972   -3.8968   24.1589 C   0  0  0  0  0  0  0  0  0  0  0  0
    5.9260   -8.2736   16.5517 C   0  0  0  0  0  0  0  0  0  0  0  0
    3.8816   -9.1166   17.2493 C   0  0  0  0  0  0  0  0  0  0  0  0
   10.1297   -1.6575   23.2324 C   0  0  0  0  0  0  0  0  0  0  0  0
    9.4684   -1.6929   26.7263 F   0  0  0  0  0  0  0  0  0  0  0  0
    7.7963   -7.7906   17.9837 C   0  0  0  0  0  0  0  0  0  0  0  0
   10.5884   -3.0725   16.7902 O   0  0  0  0  0  0  0  0  0  0  0  0
   10.4323   -5.3494   20.3516 C   0  0  0  0  0  0  0  0  0  0  0  0
    7.1156   -7.5454   16.8218 C   0  0  0  0  0  0  0  0  0  0  0  0
   10.3885   -4.4388   19.2773 C   0  0  0  0  0  0  0  0  0  0  0  0
    4.5160   -9.3822   15.0841 C   0  0  0  0  0  0  0  0  0  0  0  0
  1  3  4  0
  1 24  4  0
  2  6  4  0
  2 15  4  0
  3  5  4  0
  3  6  4  0
  4 21  4  0
  4 29  4  0
  5 15  4  0
  5 28  1  0
  6 16  4  0
  7 18  4  0
  7 26  4  0
  8 18  1  0
  8 19  4  0
  8 22  4  0
  9 12  4  0
  9 19  4  0
 10 12  4  0
 10 22  4  0
 11 20  4  0
 11 21  4  0
 12 23  1  0
 13 20  4  0
 13 29  4  0
 14 17  4  0
 14 28  4  0
 15 25  2  0
 16 27  4  0
 17 18  4  0
 20 27  1  0
 24 27  4  0
 26 28  4  0
M  END
$$$$

 Created by Python create_sdf_string function

 29 33  0  0  0  0  0  0  0  0999 V2000
    8.8270   -7.0288   18.4251 C   0  0  0  0  0  0  0  0  0  0  0  0
    9.1576   -4.6236   15.8860 O   0  0  0  0  0  0  0  0  0  0  0  0
    9.1509   -5.9108   17.7177 C   0  0  0  0  0  0  0  0  0  0  0  0
    3.6373   -9.5349   16.0582 N   0  0  0  0  0  0  0  0  0  0  0  0
    9.9275   -4.8001   18.0438 N   0  0  0  0  0  0  0  0  0  0  0  0
    8.5908   -5.7425   16.4412 C   0  0  0  0  0  0  0  0  0  0  0  0
   10.5993   -4.8981   21.6068 C   0  0  0  0  0  0  0  0  0  0  0  0
   10.4258   -3.0106   23.0998 C   0  0  0  0  0  0  0  0  0  0  0  0
   10.2148   -3.4364   25.4200 C   0  0  0  0  0  0  0  0  0  0  0  0
    9.7853   -1.1840   24.4927 C   0  0  0  0  0  0  0  0  0  0  0  0
    5.0276   -8.5227   17.5352 C   0  0  0  0  0  0  0  0  0  0  0  0
    9.8187   -2.0895   25.5800 C   0  0  0  0  0  0  0  0  0  0  0  0
    5.6473   -8.7216   15.3158 C   0  0  0  0  0  0  0  0  0  0  0  0
   10.7581   -3.1233   19.4720 N   0  0  0  0  0  0  0  0  0  0  0  0
    9.9571   -4.0573   16.8866 C   0  0  0  0  0  0  0  0  0  0  0  0
    7.6213   -6.5618   16.0087 C   0  0  0  0  0  0  0  0  0  0  0  0
   10.8583   -2.6527   20.7222 C   0  0  0  0  0  0  0  0  0  0  0  0
   10.6412   -3.5089   21.7936 C   0  0  0  0  0  0  0  0  0  0  0  0
   10.4972   -3.8968   24.1589 C   0  0  0  0  0  0  0  0  0  0  0  0
    5.9260   -8.2736   16.5517 C   0  0  0  0  0  0  0  0  0  0  0  0
    3.8816   -9.1166   17.2493 C   0  0  0  0  0  0  0  0  0  0  0  0
   10.1297   -1.6575   23.2324 C   0  0  0  0  0  0  0  0  0  0  0  0
    9.4684   -1.6929   26.7263 F   0  0  0  0  0  0  0  0  0  0  0  0
    7.7963   -7.7906   17.9837 C   0  0  0  0  0  0  0  0  0  0  0  0
   10.5884   -3.0725   16.7902 O   0  0  0  0  0  0  0  0  0  0  0  0
   10.4323   -5.3494   20.3516 C   0  0  0  0  0  0  0  0  0  0  0  0
    7.1156   -7.5454   16.8218 C   0  0  0  0  0  0  0  0  0  0  0  0
   10.3885   -4.4388   19.2773 C   0  0  0  0  0  0  0  0  0  0  0  0
    4.5160   -9.3822   15.0841 C   0  0  0  0  0  0  0  0  0  0  0  0
  1  3  4  0
  1 24  4  0
  2  6  4  0
  2 15  4  0
  3  5  4  0
  3  6  4  0
  4 21  4  0
  4 29  4  0
  5 15  4  0
  5 28  1  0
  6 16  4  0
  7 18  4  0
  7 26  4  0
  8 18  1  0
  8 19  4  0
  8 22  4  0
  9 12  4  0
  9 19  4  0
 10 12  4  0
 10 22  4  0
 11 20  4  0
 11 21  4  0
 12 23  1  0
 13 20  4  0
 13 29  4  0
 14 17  4  0
 14 28  4  0
 15 25  2  0
 16 27  4  0
 17 18  4  0
 20 27  1  0
 24 27  4  0
 26 28  4  0
M  END
$$$$

 Created by Python create_sdf_string function

 29 33  0  0  0  0  0  0  0  0999 V2000
    8.8270   -7.0288   18.4251 C   0  0  0  0  0  0  0  0  0  0  0  0
    9.1576   -4.6236   15.8860 O   0  0  0  0  0  0  0  0  0  0  0  0
    9.1509   -5.9108   17.7177 C   0  0  0  0  0  0  0  0  0  0  0  0
    3.6373   -9.5349   16.0582 N   0  0  0  0  0  0  0  0  0  0  0  0
    9.9275   -4.8001   18.0438 N   0  0  0  0  0  0  0  0  0  0  0  0
    8.5908   -5.7425   16.4412 C   0  0  0  0  0  0  0  0  0  0  0  0
   10.5993   -4.8981   21.6068 C   0  0  0  0  0  0  0  0  0  0  0  0
   10.4258   -3.0106   23.0998 C   0  0  0  0  0  0  0  0  0  0  0  0
   10.2148   -3.4364   25.4200 C   0  0  0  0  0  0  0  0  0  0  0  0
    9.7853   -1.1840   24.4927 C   0  0  0  0  0  0  0  0  0  0  0  0
    5.0276   -8.5227   17.5352 C   0  0  0  0  0  0  0  0  0  0  0  0
    9.8187   -2.0895   25.5800 C   0  0  0  0  0  0  0  0  0  0  0  0
    5.6473   -8.7216   15.3158 C   0  0  0  0  0  0  0  0  0  0  0  0
   10.7581   -3.1233   19.4720 N   0  0  0  0  0  0  0  0  0  0  0  0
    9.9571   -4.0573   16.8866 C   0  0  0  0  0  0  0  0  0  0  0  0
    7.6213   -6.5618   16.0087 C   0  0  0  0  0  0  0  0  0  0  0  0
   10.8583   -2.6527   20.7222 C   0  0  0  0  0  0  0  0  0  0  0  0
   10.6412   -3.5089   21.7936 C   0  0  0  0  0  0  0  0  0  0  0  0
   10.4972   -3.8968   24.1589 C   0  0  0  0  0  0  0  0  0  0  0  0
    5.9260   -8.2736   16.5517 C   0  0  0  0  0  0  0  0  0  0  0  0
    3.8816   -9.1166   17.2493 C   0  0  0  0  0  0  0  0  0  0  0  0
   10.1297   -1.6575   23.2324 C   0  0  0  0  0  0  0  0  0  0  0  0
    9.4684   -1.6929   26.7263 F   0  0  0  0  0  0  0  0  0  0  0  0
    7.7963   -7.7906   17.9837 C   0  0  0  0  0  0  0  0  0  0  0  0
   10.5884   -3.0725   16.7902 O   0  0  0  0  0  0  0  0  0  0  0  0
   10.4323   -5.3494   20.3516 C   0  0  0  0  0  0  0  0  0  0  0  0
    7.1156   -7.5454   16.8218 C   0  0  0  0  0  0  0  0  0  0  0  0
   10.3885   -4.4388   19.2773 C   0  0  0  0  0  0  0  0  0  0  0  0
    4.5160   -9.3822   15.0841 C   0  0  0  0  0  0  0  0  0  0  0  0
  1  3  4  0
  1 24  4  0
  2  6  4  0
  2 15  4  0
  3  5  4  0
  3  6  4  0
  4 21  4  0
  4 29  4  0
  5 15  4  0
  5 28  1  0
  6 16  4  0
  7 18  4  0
  7 26  4  0
  8 18  1  0
  8 19  4  0
  8 22  4  0
  9 12  4  0
  9 19  4  0
 10 12  4  0
 10 22  4  0
 11 20  4  0
 11 21  4  0
 12 23  1  0
 13 20  4  0
 13 29  4  0
 14 17  4  0
 14 28  4  0
 15 25  2  0
 16 27  4  0
 17 18  4  0
 20 27  1  0
 24 27  4  0
 26 28  4  0
M  END
$$$$

 Created by Python create_sdf_string function

 29 33  0  0  0  0  0  0  0  0999 V2000
    8.8270   -7.0288   18.4251 C   0  0  0  0  0  0  0  0  0  0  0  0
    9.1576   -4.6236   15.8860 O   0  0  0  0  0  0  0  0  0  0  0  0
    9.1509   -5.9108   17.7177 C   0  0  0  0  0  0  0  0  0  0  0  0
    3.6373   -9.5349   16.0582 N   0  0  0  0  0  0  0  0  0  0  0  0
    9.9275   -4.8001   18.0438 N   0  0  0  0  0  0  0  0  0  0  0  0
    8.5908   -5.7425   16.4412 C   0  0  0  0  0  0  0  0  0  0  0  0
   10.5993   -4.8981   21.6068 C   0  0  0  0  0  0  0  0  0  0  0  0
   10.4258   -3.0106   23.0998 C   0  0  0  0  0  0  0  0  0  0  0  0
   10.2148   -3.4364   25.4200 C   0  0  0  0  0  0  0  0  0  0  0  0
    9.7853   -1.1840   24.4927 C   0  0  0  0  0  0  0  0  0  0  0  0
    5.0276   -8.5227   17.5352 C   0  0  0  0  0  0  0  0  0  0  0  0
    9.8187   -2.0895   25.5800 C   0  0  0  0  0  0  0  0  0  0  0  0
    5.6473   -8.7216   15.3158 C   0  0  0  0  0  0  0  0  0  0  0  0
   10.7581   -3.1233   19.4720 N   0  0  0  0  0  0  0  0  0  0  0  0
    9.9571   -4.0573   16.8866 C   0  0  0  0  0  0  0  0  0  0  0  0
    7.6213   -6.5618   16.0087 C   0  0  0  0  0  0  0  0  0  0  0  0
   10.8583   -2.6527   20.7222 C   0  0  0  0  0  0  0  0  0  0  0  0
   10.6412   -3.5089   21.7936 C   0  0  0  0  0  0  0  0  0  0  0  0
   10.4972   -3.8968   24.1589 C   0  0  0  0  0  0  0  0  0  0  0  0
    5.9260   -8.2736   16.5517 C   0  0  0  0  0  0  0  0  0  0  0  0
    3.8816   -9.1166   17.2493 C   0  0  0  0  0  0  0  0  0  0  0  0
   10.1297   -1.6575   23.2324 C   0  0  0  0  0  0  0  0  0  0  0  0
    9.4684   -1.6929   26.7263 F   0  0  0  0  0  0  0  0  0  0  0  0
    7.7963   -7.7906   17.9837 C   0  0  0  0  0  0  0  0  0  0  0  0
   10.5884   -3.0725   16.7902 O   0  0  0  0  0  0  0  0  0  0  0  0
   10.4323   -5.3494   20.3516 C   0  0  0  0  0  0  0  0  0  0  0  0
    7.1156   -7.5454   16.8218 C   0  0  0  0  0  0  0  0  0  0  0  0
   10.3885   -4.4388   19.2773 C   0  0  0  0  0  0  0  0  0  0  0  0
    4.5160   -9.3822   15.0841 C   0  0  0  0  0  0  0  0  0  0  0  0
  1  3  4  0
  1 24  4  0
  2  6  4  0
  2 15  4  0
  3  5  4  0
  3  6  4  0
  4 21  4  0
  4 29  4  0
  5 15  4  0
  5 28  1  0
  6 16  4  0
  7 18  4  0
  7 26  4  0
  8 18  1  0
  8 19  4  0
  8 22  4  0
  9 12  4  0
  9 19  4  0
 10 12  4  0
 10 22  4  0
 11 20  4  0
 11 21  4  0
 12 23  1  0
 13 20  4  0
 13 29  4  0
 14 17  4  0
 14 28  4  0
 15 25  2  0
 16 27  4  0
 17 18  4  0
 20 27  1  0
 24 27  4  0
 26 28  4  0
M  END
$$$$

 Created by Python create_sdf_string function

 29 33  0  0  0  0  0  0  0  0999 V2000
    8.8270   -7.0288   18.4251 C   0  0  0  0  0  0  0  0  0  0  0  0
    9.1576   -4.6236   15.8860 O   0  0  0  0  0  0  0  0  0  0  0  0
    9.1509   -5.9108   17.7177 C   0  0  0  0  0  0  0  0  0  0  0  0
    3.6373   -9.5349   16.0582 N   0  0  0  0  0  0  0  0  0  0  0  0
    9.9275   -4.8001   18.0438 N   0  0  0  0  0  0  0  0  0  0  0  0
    8.5908   -5.7425   16.4412 C   0  0  0  0  0  0  0  0  0  0  0  0
   10.5993   -4.8981   21.6068 C   0  0  0  0  0  0  0  0  0  0  0  0
   10.4258   -3.0106   23.0998 C   0  0  0  0  0  0  0  0  0  0  0  0
   10.2148   -3.4364   25.4200 C   0  0  0  0  0  0  0  0  0  0  0  0
    9.7853   -1.1840   24.4927 C   0  0  0  0  0  0  0  0  0  0  0  0
    5.0276   -8.5227   17.5352 C   0  0  0  0  0  0  0  0  0  0  0  0
    9.8187   -2.0895   25.5800 C   0  0  0  0  0  0  0  0  0  0  0  0
    5.6473   -8.7216   15.3158 C   0  0  0  0  0  0  0  0  0  0  0  0
   10.7581   -3.1233   19.4720 N   0  0  0  0  0  0  0  0  0  0  0  0
    9.9571   -4.0573   16.8866 C   0  0  0  0  0  0  0  0  0  0  0  0
    7.6213   -6.5618   16.0087 C   0  0  0  0  0  0  0  0  0  0  0  0
   10.8583   -2.6527   20.7222 C   0  0  0  0  0  0  0  0  0  0  0  0
   10.6412   -3.5089   21.7936 C   0  0  0  0  0  0  0  0  0  0  0  0
   10.4972   -3.8968   24.1589 C   0  0  0  0  0  0  0  0  0  0  0  0
    5.9260   -8.2736   16.5517 C   0  0  0  0  0  0  0  0  0  0  0  0
    3.8816   -9.1166   17.2493 C   0  0  0  0  0  0  0  0  0  0  0  0
   10.1297   -1.6575   23.2324 C   0  0  0  0  0  0  0  0  0  0  0  0
    9.4684   -1.6929   26.7263 F   0  0  0  0  0  0  0  0  0  0  0  0
    7.7963   -7.7906   17.9837 C   0  0  0  0  0  0  0  0  0  0  0  0
   10.5884   -3.0725   16.7902 O   0  0  0  0  0  0  0  0  0  0  0  0
   10.4323   -5.3494   20.3516 C   0  0  0  0  0  0  0  0  0  0  0  0
    7.1156   -7.5454   16.8218 C   0  0  0  0  0  0  0  0  0  0  0  0
   10.3885   -4.4388   19.2773 C   0  0  0  0  0  0  0  0  0  0  0  0
    4.5160   -9.3822   15.0841 C   0  0  0  0  0  0  0  0  0  0  0  0
  1  3  4  0
  1 24  4  0
  2  6  4  0
  2 15  4  0
  3  5  4  0
  3  6  4  0
  4 21  4  0
  4 29  4  0
  5 15  4  0
  5 28  1  0
  6 16  4  0
  7 18  4  0
  7 26  4  0
  8 18  1  0
  8 19  4  0
  8 22  4  0
  9 12  4  0
  9 19  4  0
 10 12  4  0
 10 22  4  0
 11 20  4  0
 11 21  4  0
 12 23  1  0
 13 20  4  0
 13 29  4  0
 14 17  4  0
 14 28  4  0
 15 25  2  0
 16 27  4  0
 17 18  4  0
 20 27  1  0
 24 27  4  0
 26 28  4  0
M  END
$$$$

 Created by Python create_sdf_string function

 29 33  0  0  0  0  0  0  0  0999 V2000
    8.8270   -7.0288   18.4251 C   0  0  0  0  0  0  0  0  0  0  0  0
    9.1576   -4.6236   15.8860 O   0  0  0  0  0  0  0  0  0  0  0  0
    9.1509   -5.9108   17.7177 C   0  0  0  0  0  0  0  0  0  0  0  0
    3.6373   -9.5349   16.0582 N   0  0  0  0  0  0  0  0  0  0  0  0
    9.9275   -4.8001   18.0438 N   0  0  0  0  0  0  0  0  0  0  0  0
    8.5908   -5.7425   16.4412 C   0  0  0  0  0  0  0  0  0  0  0  0
   10.5993   -4.8981   21.6068 C   0  0  0  0  0  0  0  0  0  0  0  0
   10.4258   -3.0106   23.0998 C   0  0  0  0  0  0  0  0  0  0  0  0
   10.2148   -3.4364   25.4200 C   0  0  0  0  0  0  0  0  0  0  0  0
    9.7853   -1.1840   24.4927 C   0  0  0  0  0  0  0  0  0  0  0  0
    5.0276   -8.5227   17.5352 C   0  0  0  0  0  0  0  0  0  0  0  0
    9.8187   -2.0895   25.5800 C   0  0  0  0  0  0  0  0  0  0  0  0
    5.6473   -8.7216   15.3158 C   0  0  0  0  0  0  0  0  0  0  0  0
   10.7581   -3.1233   19.4720 N   0  0  0  0  0  0  0  0  0  0  0  0
    9.9571   -4.0573   16.8866 C   0  0  0  0  0  0  0  0  0  0  0  0
    7.6213   -6.5618   16.0087 C   0  0  0  0  0  0  0  0  0  0  0  0
   10.8583   -2.6527   20.7222 C   0  0  0  0  0  0  0  0  0  0  0  0
   10.6412   -3.5089   21.7936 C   0  0  0  0  0  0  0  0  0  0  0  0
   10.4972   -3.8968   24.1589 C   0  0  0  0  0  0  0  0  0  0  0  0
    5.9260   -8.2736   16.5517 C   0  0  0  0  0  0  0  0  0  0  0  0
    3.8816   -9.1166   17.2493 C   0  0  0  0  0  0  0  0  0  0  0  0
   10.1297   -1.6575   23.2324 C   0  0  0  0  0  0  0  0  0  0  0  0
    9.4684   -1.6929   26.7263 F   0  0  0  0  0  0  0  0  0  0  0  0
    7.7963   -7.7906   17.9837 C   0  0  0  0  0  0  0  0  0  0  0  0
   10.5884   -3.0725   16.7902 O   0  0  0  0  0  0  0  0  0  0  0  0
   10.4323   -5.3494   20.3516 C   0  0  0  0  0  0  0  0  0  0  0  0
    7.1156   -7.5454   16.8218 C   0  0  0  0  0  0  0  0  0  0  0  0
   10.3885   -4.4388   19.2773 C   0  0  0  0  0  0  0  0  0  0  0  0
    4.5160   -9.3822   15.0841 C   0  0  0  0  0  0  0  0  0  0  0  0
  1  3  4  0
  1 24  4  0
  2  6  4  0
  2 15  4  0
  3  5  4  0
  3  6  4  0
  4 21  4  0
  4 29  4  0
  5 15  4  0
  5 28  1  0
  6 16  4  0
  7 18  4  0
  7 26  4  0
  8 18  1  0
  8 19  4  0
  8 22  4  0
  9 12  4  0
  9 19  4  0
 10 12  4  0
 10 22  4  0
 11 20  4  0
 11 21  4  0
 12 23  1  0
 13 20  4  0
 13 29  4  0
 14 17  4  0
 14 28  4  0
 15 25  2  0
 16 27  4  0
 17 18  4  0
 20 27  1  0
 24 27  4  0
 26 28  4  0
M  END
$$$$

 Created by Python create_sdf_string function

 29 33  0  0  0  0  0  0  0  0999 V2000
    8.8270   -7.0288   18.4251 C   0  0  0  0  0  0  0  0  0  0  0  0
    9.1576   -4.6236   15.8860 O   0  0  0  0  0  0  0  0  0  0  0  0
    9.1509   -5.9108   17.7177 C   0  0  0  0  0  0  0  0  0  0  0  0
    3.6373   -9.5349   16.0582 N   0  0  0  0  0  0  0  0  0  0  0  0
    9.9275   -4.8001   18.0438 N   0  0  0  0  0  0  0  0  0  0  0  0
    8.5908   -5.7425   16.4412 C   0  0  0  0  0  0  0  0  0  0  0  0
   10.5993   -4.8981   21.6068 C   0  0  0  0  0  0  0  0  0  0  0  0
   10.4258   -3.0106   23.0998 C   0  0  0  0  0  0  0  0  0  0  0  0
   10.2148   -3.4364   25.4200 C   0  0  0  0  0  0  0  0  0  0  0  0
    9.7853   -1.1840   24.4927 C   0  0  0  0  0  0  0  0  0  0  0  0
    5.0276   -8.5227   17.5352 C   0  0  0  0  0  0  0  0  0  0  0  0
    9.8187   -2.0895   25.5800 C   0  0  0  0  0  0  0  0  0  0  0  0
    5.6473   -8.7216   15.3158 C   0  0  0  0  0  0  0  0  0  0  0  0
   10.7581   -3.1233   19.4720 N   0  0  0  0  0  0  0  0  0  0  0  0
    9.9571   -4.0573   16.8866 C   0  0  0  0  0  0  0  0  0  0  0  0
    7.6213   -6.5618   16.0087 C   0  0  0  0  0  0  0  0  0  0  0  0
   10.8583   -2.6527   20.7222 C   0  0  0  0  0  0  0  0  0  0  0  0
   10.6412   -3.5089   21.7936 C   0  0  0  0  0  0  0  0  0  0  0  0
   10.4972   -3.8968   24.1589 C   0  0  0  0  0  0  0  0  0  0  0  0
    5.9260   -8.2736   16.5517 C   0  0  0  0  0  0  0  0  0  0  0  0
    3.8816   -9.1166   17.2493 C   0  0  0  0  0  0  0  0  0  0  0  0
   10.1297   -1.6575   23.2324 C   0  0  0  0  0  0  0  0  0  0  0  0
    9.4684   -1.6929   26.7263 F   0  0  0  0  0  0  0  0  0  0  0  0
    7.7963   -7.7906   17.9837 C   0  0  0  0  0  0  0  0  0  0  0  0
   10.5884   -3.0725   16.7902 O   0  0  0  0  0  0  0  0  0  0  0  0
   10.4323   -5.3494   20.3516 C   0  0  0  0  0  0  0  0  0  0  0  0
    7.1156   -7.5454   16.8218 C   0  0  0  0  0  0  0  0  0  0  0  0
   10.3885   -4.4388   19.2773 C   0  0  0  0  0  0  0  0  0  0  0  0
    4.5160   -9.3822   15.0841 C   0  0  0  0  0  0  0  0  0  0  0  0
  1  3  4  0
  1 24  4  0
  2  6  4  0
  2 15  4  0
  3  5  4  0
  3  6  4  0
  4 21  4  0
  4 29  4  0
  5 15  4  0
  5 28  1  0
  6 16  4  0
  7 18  4  0
  7 26  4  0
  8 18  1  0
  8 19  4  0
  8 22  4  0
  9 12  4  0
  9 19  4  0
 10 12  4  0
 10 22  4  0
 11 20  4  0
 11 21  4  0
 12 23  1  0
 13 20  4  0
 13 29  4  0
 14 17  4  0
 14 28  4  0
 15 25  2  0
 16 27  4  0
 17 18  4  0
 20 27  1  0
 24 27  4  0
 26 28  4  0
M  END
$$$$

 Created by Python create_sdf_string function

 29 33  0  0  0  0  0  0  0  0999 V2000
    8.8270   -7.0288   18.4251 C   0  0  0  0  0  0  0  0  0  0  0  0
    9.1576   -4.6236   15.8860 O   0  0  0  0  0  0  0  0  0  0  0  0
    9.1509   -5.9108   17.7177 C   0  0  0  0  0  0  0  0  0  0  0  0
    3.6373   -9.5349   16.0582 N   0  0  0  0  0  0  0  0  0  0  0  0
    9.9275   -4.8001   18.0438 N   0  0  0  0  0  0  0  0  0  0  0  0
    8.5908   -5.7425   16.4412 C   0  0  0  0  0  0  0  0  0  0  0  0
   10.5993   -4.8981   21.6068 C   0  0  0  0  0  0  0  0  0  0  0  0
   10.4258   -3.0106   23.0998 C   0  0  0  0  0  0  0  0  0  0  0  0
   10.2148   -3.4364   25.4200 C   0  0  0  0  0  0  0  0  0  0  0  0
    9.7853   -1.1840   24.4927 C   0  0  0  0  0  0  0  0  0  0  0  0
    5.0276   -8.5227   17.5352 C   0  0  0  0  0  0  0  0  0  0  0  0
    9.8187   -2.0895   25.5800 C   0  0  0  0  0  0  0  0  0  0  0  0
    5.6473   -8.7216   15.3158 C   0  0  0  0  0  0  0  0  0  0  0  0
   10.7581   -3.1233   19.4720 N   0  0  0  0  0  0  0  0  0  0  0  0
    9.9571   -4.0573   16.8866 C   0  0  0  0  0  0  0  0  0  0  0  0
    7.6213   -6.5618   16.0087 C   0  0  0  0  0  0  0  0  0  0  0  0
   10.8583   -2.6527   20.7222 C   0  0  0  0  0  0  0  0  0  0  0  0
   10.6412   -3.5089   21.7936 C   0  0  0  0  0  0  0  0  0  0  0  0
   10.4972   -3.8968   24.1589 C   0  0  0  0  0  0  0  0  0  0  0  0
    5.9260   -8.2736   16.5517 C   0  0  0  0  0  0  0  0  0  0  0  0
    3.8816   -9.1166   17.2493 C   0  0  0  0  0  0  0  0  0  0  0  0
   10.1297   -1.6575   23.2324 C   0  0  0  0  0  0  0  0  0  0  0  0
    9.4684   -1.6929   26.7263 F   0  0  0  0  0  0  0  0  0  0  0  0
    7.7963   -7.7906   17.9837 C   0  0  0  0  0  0  0  0  0  0  0  0
   10.5884   -3.0725   16.7902 O   0  0  0  0  0  0  0  0  0  0  0  0
   10.4323   -5.3494   20.3516 C   0  0  0  0  0  0  0  0  0  0  0  0
    7.1156   -7.5454   16.8218 C   0  0  0  0  0  0  0  0  0  0  0  0
   10.3885   -4.4388   19.2773 C   0  0  0  0  0  0  0  0  0  0  0  0
    4.5160   -9.3822   15.0841 C   0  0  0  0  0  0  0  0  0  0  0  0
  1  3  4  0
  1 24  4  0
  2  6  4  0
  2 15  4  0
  3  5  4  0
  3  6  4  0
  4 21  4  0
  4 29  4  0
  5 15  4  0
  5 28  1  0
  6 16  4  0
  7 18  4  0
  7 26  4  0
  8 18  1  0
  8 19  4  0
  8 22  4  0
  9 12  4  0
  9 19  4  0
 10 12  4  0
 10 22  4  0
 11 20  4  0
 11 21  4  0
 12 23  1  0
 13 20  4  0
 13 29  4  0
 14 17  4  0
 14 28  4  0
 15 25  2  0
 16 27  4  0
 17 18  4  0
 20 27  1  0
 24 27  4  0
 26 28  4  0
M  END
$$$$

 Created by Python create_sdf_string function

 29 33  0  0  0  0  0  0  0  0999 V2000
    8.8270   -7.0288   18.4251 C   0  0  0  0  0  0  0  0  0  0  0  0
    9.1576   -4.6236   15.8860 O   0  0  0  0  0  0  0  0  0  0  0  0
    9.1509   -5.9108   17.7177 C   0  0  0  0  0  0  0  0  0  0  0  0
    3.6373   -9.5349   16.0582 N   0  0  0  0  0  0  0  0  0  0  0  0
    9.9275   -4.8001   18.0438 N   0  0  0  0  0  0  0  0  0  0  0  0
    8.5908   -5.7425   16.4412 C   0  0  0  0  0  0  0  0  0  0  0  0
   10.5993   -4.8981   21.6068 C   0  0  0  0  0  0  0  0  0  0  0  0
   10.4258   -3.0106   23.0998 C   0  0  0  0  0  0  0  0  0  0  0  0
   10.2148   -3.4364   25.4200 C   0  0  0  0  0  0  0  0  0  0  0  0
    9.7853   -1.1840   24.4927 C   0  0  0  0  0  0  0  0  0  0  0  0
    5.0276   -8.5227   17.5352 C   0  0  0  0  0  0  0  0  0  0  0  0
    9.8187   -2.0895   25.5800 C   0  0  0  0  0  0  0  0  0  0  0  0
    5.6473   -8.7216   15.3158 C   0  0  0  0  0  0  0  0  0  0  0  0
   10.7581   -3.1233   19.4720 N   0  0  0  0  0  0  0  0  0  0  0  0
    9.9571   -4.0573   16.8866 C   0  0  0  0  0  0  0  0  0  0  0  0
    7.6213   -6.5618   16.0087 C   0  0  0  0  0  0  0  0  0  0  0  0
   10.8583   -2.6527   20.7222 C   0  0  0  0  0  0  0  0  0  0  0  0
   10.6412   -3.5089   21.7936 C   0  0  0  0  0  0  0  0  0  0  0  0
   10.4972   -3.8968   24.1589 C   0  0  0  0  0  0  0  0  0  0  0  0
    5.9260   -8.2736   16.5517 C   0  0  0  0  0  0  0  0  0  0  0  0
    3.8816   -9.1166   17.2493 C   0  0  0  0  0  0  0  0  0  0  0  0
   10.1297   -1.6575   23.2324 C   0  0  0  0  0  0  0  0  0  0  0  0
    9.4684   -1.6929   26.7263 F   0  0  0  0  0  0  0  0  0  0  0  0
    7.7963   -7.7906   17.9837 C   0  0  0  0  0  0  0  0  0  0  0  0
   10.5884   -3.0725   16.7902 O   0  0  0  0  0  0  0  0  0  0  0  0
   10.4323   -5.3494   20.3516 C   0  0  0  0  0  0  0  0  0  0  0  0
    7.1156   -7.5454   16.8218 C   0  0  0  0  0  0  0  0  0  0  0  0
   10.3885   -4.4388   19.2773 C   0  0  0  0  0  0  0  0  0  0  0  0
    4.5160   -9.3822   15.0841 C   0  0  0  0  0  0  0  0  0  0  0  0
  1  3  4  0
  1 24  4  0
  2  6  4  0
  2 15  4  0
  3  5  4  0
  3  6  4  0
  4 21  4  0
  4 29  4  0
  5 15  4  0
  5 28  1  0
  6 16  4  0
  7 18  4  0
  7 26  4  0
  8 18  1  0
  8 19  4  0
  8 22  4  0
  9 12  4  0
  9 19  4  0
 10 12  4  0
 10 22  4  0
 11 20  4  0
 11 21  4  0
 12 23  1  0
 13 20  4  0
 13 29  4  0
 14 17  4  0
 14 28  4  0
 15 25  2  0
 16 27  4  0
 17 18  4  0
 20 27  1  0
 24 27  4  0
 26 28  4  0
M  END
$$$$

 Created by Python create_sdf_string function

 29 33  0  0  0  0  0  0  0  0999 V2000
    8.8270   -7.0288   18.4251 C   0  0  0  0  0  0  0  0  0  0  0  0
    9.1576   -4.6236   15.8860 O   0  0  0  0  0  0  0  0  0  0  0  0
    9.1509   -5.9108   17.7177 C   0  0  0  0  0  0  0  0  0  0  0  0
    3.6373   -9.5349   16.0582 N   0  0  0  0  0  0  0  0  0  0  0  0
    9.9275   -4.8001   18.0438 N   0  0  0  0  0  0  0  0  0  0  0  0
    8.5908   -5.7425   16.4412 C   0  0  0  0  0  0  0  0  0  0  0  0
   10.5993   -4.8981   21.6068 C   0  0  0  0  0  0  0  0  0  0  0  0
   10.4258   -3.0106   23.0998 C   0  0  0  0  0  0  0  0  0  0  0  0
   10.2148   -3.4364   25.4200 C   0  0  0  0  0  0  0  0  0  0  0  0
    9.7853   -1.1840   24.4927 C   0  0  0  0  0  0  0  0  0  0  0  0
    5.0276   -8.5227   17.5352 C   0  0  0  0  0  0  0  0  0  0  0  0
    9.8187   -2.0895   25.5800 C   0  0  0  0  0  0  0  0  0  0  0  0
    5.6473   -8.7216   15.3158 C   0  0  0  0  0  0  0  0  0  0  0  0
   10.7581   -3.1233   19.4720 N   0  0  0  0  0  0  0  0  0  0  0  0
    9.9571   -4.0573   16.8866 C   0  0  0  0  0  0  0  0  0  0  0  0
    7.6213   -6.5618   16.0087 C   0  0  0  0  0  0  0  0  0  0  0  0
   10.8583   -2.6527   20.7222 C   0  0  0  0  0  0  0  0  0  0  0  0
   10.6412   -3.5089   21.7936 C   0  0  0  0  0  0  0  0  0  0  0  0
   10.4972   -3.8968   24.1589 C   0  0  0  0  0  0  0  0  0  0  0  0
    5.9260   -8.2736   16.5517 C   0  0  0  0  0  0  0  0  0  0  0  0
    3.8816   -9.1166   17.2493 C   0  0  0  0  0  0  0  0  0  0  0  0
   10.1297   -1.6575   23.2324 C   0  0  0  0  0  0  0  0  0  0  0  0
    9.4684   -1.6929   26.7263 F   0  0  0  0  0  0  0  0  0  0  0  0
    7.7963   -7.7906   17.9837 C   0  0  0  0  0  0  0  0  0  0  0  0
   10.5884   -3.0725   16.7902 O   0  0  0  0  0  0  0  0  0  0  0  0
   10.4323   -5.3494   20.3516 C   0  0  0  0  0  0  0  0  0  0  0  0
    7.1156   -7.5454   16.8218 C   0  0  0  0  0  0  0  0  0  0  0  0
   10.3885   -4.4388   19.2773 C   0  0  0  0  0  0  0  0  0  0  0  0
    4.5160   -9.3822   15.0841 C   0  0  0  0  0  0  0  0  0  0  0  0
  1  3  4  0
  1 24  4  0
  2  6  4  0
  2 15  4  0
  3  5  4  0
  3  6  4  0
  4 21  4  0
  4 29  4  0
  5 15  4  0
  5 28  1  0
  6 16  4  0
  7 18  4  0
  7 26  4  0
  8 18  1  0
  8 19  4  0
  8 22  4  0
  9 12  4  0
  9 19  4  0
 10 12  4  0
 10 22  4  0
 11 20  4  0
 11 21  4  0
 12 23  1  0
 13 20  4  0
 13 29  4  0
 14 17  4  0
 14 28  4  0
 15 25  2  0
 16 27  4  0
 17 18  4  0
 20 27  1  0
 24 27  4  0
 26 28  4  0
M  END
$$$$

 Created by Python create_sdf_string function

 29 33  0  0  0  0  0  0  0  0999 V2000
    8.8270   -7.0288   18.4251 C   0  0  0  0  0  0  0  0  0  0  0  0
    9.1576   -4.6236   15.8860 O   0  0  0  0  0  0  0  0  0  0  0  0
    9.1509   -5.9108   17.7177 C   0  0  0  0  0  0  0  0  0  0  0  0
    3.6373   -9.5349   16.0582 N   0  0  0  0  0  0  0  0  0  0  0  0
    9.9275   -4.8001   18.0438 N   0  0  0  0  0  0  0  0  0  0  0  0
    8.5908   -5.7425   16.4412 C   0  0  0  0  0  0  0  0  0  0  0  0
   10.5993   -4.8981   21.6068 C   0  0  0  0  0  0  0  0  0  0  0  0
   10.4258   -3.0106   23.0998 C   0  0  0  0  0  0  0  0  0  0  0  0
   10.2148   -3.4364   25.4200 C   0  0  0  0  0  0  0  0  0  0  0  0
    9.7853   -1.1840   24.4927 C   0  0  0  0  0  0  0  0  0  0  0  0
    5.0276   -8.5227   17.5352 C   0  0  0  0  0  0  0  0  0  0  0  0
    9.8187   -2.0895   25.5800 C   0  0  0  0  0  0  0  0  0  0  0  0
    5.6473   -8.7216   15.3158 C   0  0  0  0  0  0  0  0  0  0  0  0
   10.7581   -3.1233   19.4720 N   0  0  0  0  0  0  0  0  0  0  0  0
    9.9571   -4.0573   16.8866 C   0  0  0  0  0  0  0  0  0  0  0  0
    7.6213   -6.5618   16.0087 C   0  0  0  0  0  0  0  0  0  0  0  0
   10.8583   -2.6527   20.7222 C   0  0  0  0  0  0  0  0  0  0  0  0
   10.6412   -3.5089   21.7936 C   0  0  0  0  0  0  0  0  0  0  0  0
   10.4972   -3.8968   24.1589 C   0  0  0  0  0  0  0  0  0  0  0  0
    5.9260   -8.2736   16.5517 C   0  0  0  0  0  0  0  0  0  0  0  0
    3.8816   -9.1166   17.2493 C   0  0  0  0  0  0  0  0  0  0  0  0
   10.1297   -1.6575   23.2324 C   0  0  0  0  0  0  0  0  0  0  0  0
    9.4684   -1.6929   26.7263 F   0  0  0  0  0  0  0  0  0  0  0  0
    7.7963   -7.7906   17.9837 C   0  0  0  0  0  0  0  0  0  0  0  0
   10.5884   -3.0725   16.7902 O   0  0  0  0  0  0  0  0  0  0  0  0
   10.4323   -5.3494   20.3516 C   0  0  0  0  0  0  0  0  0  0  0  0
    7.1156   -7.5454   16.8218 C   0  0  0  0  0  0  0  0  0  0  0  0
   10.3885   -4.4388   19.2773 C   0  0  0  0  0  0  0  0  0  0  0  0
    4.5160   -9.3822   15.0841 C   0  0  0  0  0  0  0  0  0  0  0  0
  1  3  4  0
  1 24  4  0
  2  6  4  0
  2 15  4  0
  3  5  4  0
  3  6  4  0
  4 21  4  0
  4 29  4  0
  5 15  4  0
  5 28  1  0
  6 16  4  0
  7 18  4  0
  7 26  4  0
  8 18  1  0
  8 19  4  0
  8 22  4  0
  9 12  4  0
  9 19  4  0
 10 12  4  0
 10 22  4  0
 11 20  4  0
 11 21  4  0
 12 23  1  0
 13 20  4  0
 13 29  4  0
 14 17  4  0
 14 28  4  0
 15 25  2  0
 16 27  4  0
 17 18  4  0
 20 27  1  0
 24 27  4  0
 26 28  4  0
M  END
$$$$

 Created by Python create_sdf_string function

 29 33  0  0  0  0  0  0  0  0999 V2000
    8.8270   -7.0288   18.4251 C   0  0  0  0  0  0  0  0  0  0  0  0
    9.1576   -4.6236   15.8860 O   0  0  0  0  0  0  0  0  0  0  0  0
    9.1509   -5.9108   17.7177 C   0  0  0  0  0  0  0  0  0  0  0  0
    3.6373   -9.5349   16.0582 N   0  0  0  0  0  0  0  0  0  0  0  0
    9.9275   -4.8001   18.0438 N   0  0  0  0  0  0  0  0  0  0  0  0
    8.5908   -5.7425   16.4412 C   0  0  0  0  0  0  0  0  0  0  0  0
   10.5993   -4.8981   21.6068 C   0  0  0  0  0  0  0  0  0  0  0  0
   10.4258   -3.0106   23.0998 C   0  0  0  0  0  0  0  0  0  0  0  0
   10.2148   -3.4364   25.4200 C   0  0  0  0  0  0  0  0  0  0  0  0
    9.7853   -1.1840   24.4927 C   0  0  0  0  0  0  0  0  0  0  0  0
    5.0276   -8.5227   17.5352 C   0  0  0  0  0  0  0  0  0  0  0  0
    9.8187   -2.0895   25.5800 C   0  0  0  0  0  0  0  0  0  0  0  0
    5.6473   -8.7216   15.3158 C   0  0  0  0  0  0  0  0  0  0  0  0
   10.7581   -3.1233   19.4720 N   0  0  0  0  0  0  0  0  0  0  0  0
    9.9571   -4.0573   16.8866 C   0  0  0  0  0  0  0  0  0  0  0  0
    7.6213   -6.5618   16.0087 C   0  0  0  0  0  0  0  0  0  0  0  0
   10.8583   -2.6527   20.7222 C   0  0  0  0  0  0  0  0  0  0  0  0
   10.6412   -3.5089   21.7936 C   0  0  0  0  0  0  0  0  0  0  0  0
   10.4972   -3.8968   24.1589 C   0  0  0  0  0  0  0  0  0  0  0  0
    5.9260   -8.2736   16.5517 C   0  0  0  0  0  0  0  0  0  0  0  0
    3.8816   -9.1166   17.2493 C   0  0  0  0  0  0  0  0  0  0  0  0
   10.1297   -1.6575   23.2324 C   0  0  0  0  0  0  0  0  0  0  0  0
    9.4684   -1.6929   26.7263 F   0  0  0  0  0  0  0  0  0  0  0  0
    7.7963   -7.7906   17.9837 C   0  0  0  0  0  0  0  0  0  0  0  0
   10.5884   -3.0725   16.7902 O   0  0  0  0  0  0  0  0  0  0  0  0
   10.4323   -5.3494   20.3516 C   0  0  0  0  0  0  0  0  0  0  0  0
    7.1156   -7.5454   16.8218 C   0  0  0  0  0  0  0  0  0  0  0  0
   10.3885   -4.4388   19.2773 C   0  0  0  0  0  0  0  0  0  0  0  0
    4.5160   -9.3822   15.0841 C   0  0  0  0  0  0  0  0  0  0  0  0
  1  3  4  0
  1 24  4  0
  2  6  4  0
  2 15  4  0
  3  5  4  0
  3  6  4  0
  4 21  4  0
  4 29  4  0
  5 15  4  0
  5 28  1  0
  6 16  4  0
  7 18  4  0
  7 26  4  0
  8 18  1  0
  8 19  4  0
  8 22  4  0
  9 12  4  0
  9 19  4  0
 10 12  4  0
 10 22  4  0
 11 20  4  0
 11 21  4  0
 12 23  1  0
 13 20  4  0
 13 29  4  0
 14 17  4  0
 14 28  4  0
 15 25  2  0
 16 27  4  0
 17 18  4  0
 20 27  1  0
 24 27  4  0
 26 28  4  0
M  END
$$$$

 Created by Python create_sdf_string function

 29 33  0  0  0  0  0  0  0  0999 V2000
    8.8270   -7.0288   18.4251 C   0  0  0  0  0  0  0  0  0  0  0  0
    9.1576   -4.6236   15.8860 O   0  0  0  0  0  0  0  0  0  0  0  0
    9.1509   -5.9108   17.7177 C   0  0  0  0  0  0  0  0  0  0  0  0
    3.6373   -9.5349   16.0582 N   0  0  0  0  0  0  0  0  0  0  0  0
    9.9275   -4.8001   18.0438 N   0  0  0  0  0  0  0  0  0  0  0  0
    8.5908   -5.7425   16.4412 C   0  0  0  0  0  0  0  0  0  0  0  0
   10.5993   -4.8981   21.6068 C   0  0  0  0  0  0  0  0  0  0  0  0
   10.4258   -3.0106   23.0998 C   0  0  0  0  0  0  0  0  0  0  0  0
   10.2148   -3.4364   25.4200 C   0  0  0  0  0  0  0  0  0  0  0  0
    9.7853   -1.1840   24.4927 C   0  0  0  0  0  0  0  0  0  0  0  0
    5.0276   -8.5227   17.5352 C   0  0  0  0  0  0  0  0  0  0  0  0
    9.8187   -2.0895   25.5800 C   0  0  0  0  0  0  0  0  0  0  0  0
    5.6473   -8.7216   15.3158 C   0  0  0  0  0  0  0  0  0  0  0  0
   10.7581   -3.1233   19.4720 N   0  0  0  0  0  0  0  0  0  0  0  0
    9.9571   -4.0573   16.8866 C   0  0  0  0  0  0  0  0  0  0  0  0
    7.6213   -6.5618   16.0087 C   0  0  0  0  0  0  0  0  0  0  0  0
   10.8583   -2.6527   20.7222 C   0  0  0  0  0  0  0  0  0  0  0  0
   10.6412   -3.5089   21.7936 C   0  0  0  0  0  0  0  0  0  0  0  0
   10.4972   -3.8968   24.1589 C   0  0  0  0  0  0  0  0  0  0  0  0
    5.9260   -8.2736   16.5517 C   0  0  0  0  0  0  0  0  0  0  0  0
    3.8816   -9.1166   17.2493 C   0  0  0  0  0  0  0  0  0  0  0  0
   10.1297   -1.6575   23.2324 C   0  0  0  0  0  0  0  0  0  0  0  0
    9.4684   -1.6929   26.7263 F   0  0  0  0  0  0  0  0  0  0  0  0
    7.7963   -7.7906   17.9837 C   0  0  0  0  0  0  0  0  0  0  0  0
   10.5884   -3.0725   16.7902 O   0  0  0  0  0  0  0  0  0  0  0  0
   10.4323   -5.3494   20.3516 C   0  0  0  0  0  0  0  0  0  0  0  0
    7.1156   -7.5454   16.8218 C   0  0  0  0  0  0  0  0  0  0  0  0
   10.3885   -4.4388   19.2773 C   0  0  0  0  0  0  0  0  0  0  0  0
    4.5160   -9.3822   15.0841 C   0  0  0  0  0  0  0  0  0  0  0  0
  1  3  4  0
  1 24  4  0
  2  6  4  0
  2 15  4  0
  3  5  4  0
  3  6  4  0
  4 21  4  0
  4 29  4  0
  5 15  4  0
  5 28  1  0
  6 16  4  0
  7 18  4  0
  7 26  4  0
  8 18  1  0
  8 19  4  0
  8 22  4  0
  9 12  4  0
  9 19  4  0
 10 12  4  0
 10 22  4  0
 11 20  4  0
 11 21  4  0
 12 23  1  0
 13 20  4  0
 13 29  4  0
 14 17  4  0
 14 28  4  0
 15 25  2  0
 16 27  4  0
 17 18  4  0
 20 27  1  0
 24 27  4  0
 26 28  4  0
M  END
$$$$

 Created by Python create_sdf_string function

 29 33  0  0  0  0  0  0  0  0999 V2000
    8.8270   -7.0288   18.4251 C   0  0  0  0  0  0  0  0  0  0  0  0
    9.1576   -4.6236   15.8860 O   0  0  0  0  0  0  0  0  0  0  0  0
    9.1509   -5.9108   17.7177 C   0  0  0  0  0  0  0  0  0  0  0  0
    3.6373   -9.5349   16.0582 N   0  0  0  0  0  0  0  0  0  0  0  0
    9.9275   -4.8001   18.0438 N   0  0  0  0  0  0  0  0  0  0  0  0
    8.5908   -5.7425   16.4412 C   0  0  0  0  0  0  0  0  0  0  0  0
   10.5993   -4.8981   21.6068 C   0  0  0  0  0  0  0  0  0  0  0  0
   10.4258   -3.0106   23.0998 C   0  0  0  0  0  0  0  0  0  0  0  0
   10.2148   -3.4364   25.4200 C   0  0  0  0  0  0  0  0  0  0  0  0
    9.7853   -1.1840   24.4927 C   0  0  0  0  0  0  0  0  0  0  0  0
    5.0276   -8.5227   17.5352 C   0  0  0  0  0  0  0  0  0  0  0  0
    9.8187   -2.0895   25.5800 C   0  0  0  0  0  0  0  0  0  0  0  0
    5.6473   -8.7216   15.3158 C   0  0  0  0  0  0  0  0  0  0  0  0
   10.7581   -3.1233   19.4720 N   0  0  0  0  0  0  0  0  0  0  0  0
    9.9571   -4.0573   16.8866 C   0  0  0  0  0  0  0  0  0  0  0  0
    7.6213   -6.5618   16.0087 C   0  0  0  0  0  0  0  0  0  0  0  0
   10.8583   -2.6527   20.7222 C   0  0  0  0  0  0  0  0  0  0  0  0
   10.6412   -3.5089   21.7936 C   0  0  0  0  0  0  0  0  0  0  0  0
   10.4972   -3.8968   24.1589 C   0  0  0  0  0  0  0  0  0  0  0  0
    5.9260   -8.2736   16.5517 C   0  0  0  0  0  0  0  0  0  0  0  0
    3.8816   -9.1166   17.2493 C   0  0  0  0  0  0  0  0  0  0  0  0
   10.1297   -1.6575   23.2324 C   0  0  0  0  0  0  0  0  0  0  0  0
    9.4684   -1.6929   26.7263 F   0  0  0  0  0  0  0  0  0  0  0  0
    7.7963   -7.7906   17.9837 C   0  0  0  0  0  0  0  0  0  0  0  0
   10.5884   -3.0725   16.7902 O   0  0  0  0  0  0  0  0  0  0  0  0
   10.4323   -5.3494   20.3516 C   0  0  0  0  0  0  0  0  0  0  0  0
    7.1156   -7.5454   16.8218 C   0  0  0  0  0  0  0  0  0  0  0  0
   10.3885   -4.4388   19.2773 C   0  0  0  0  0  0  0  0  0  0  0  0
    4.5160   -9.3822   15.0841 C   0  0  0  0  0  0  0  0  0  0  0  0
  1  3  4  0
  1 24  4  0
  2  6  4  0
  2 15  4  0
  3  5  4  0
  3  6  4  0
  4 21  4  0
  4 29  4  0
  5 15  4  0
  5 28  1  0
  6 16  4  0
  7 18  4  0
  7 26  4  0
  8 18  1  0
  8 19  4  0
  8 22  4  0
  9 12  4  0
  9 19  4  0
 10 12  4  0
 10 22  4  0
 11 20  4  0
 11 21  4  0
 12 23  1  0
 13 20  4  0
 13 29  4  0
 14 17  4  0
 14 28  4  0
 15 25  2  0
 16 27  4  0
 17 18  4  0
 20 27  1  0
 24 27  4  0
 26 28  4  0
M  END
$$$$

 Created by Python create_sdf_string function

 29 33  0  0  0  0  0  0  0  0999 V2000
    8.8270   -7.0288   18.4251 C   0  0  0  0  0  0  0  0  0  0  0  0
    9.1576   -4.6236   15.8860 O   0  0  0  0  0  0  0  0  0  0  0  0
    9.1509   -5.9108   17.7177 C   0  0  0  0  0  0  0  0  0  0  0  0
    3.6373   -9.5349   16.0582 N   0  0  0  0  0  0  0  0  0  0  0  0
    9.9275   -4.8001   18.0438 N   0  0  0  0  0  0  0  0  0  0  0  0
    8.5908   -5.7425   16.4412 C   0  0  0  0  0  0  0  0  0  0  0  0
   10.5993   -4.8981   21.6068 C   0  0  0  0  0  0  0  0  0  0  0  0
   10.4258   -3.0106   23.0998 C   0  0  0  0  0  0  0  0  0  0  0  0
   10.2148   -3.4364   25.4200 C   0  0  0  0  0  0  0  0  0  0  0  0
    9.7853   -1.1840   24.4927 C   0  0  0  0  0  0  0  0  0  0  0  0
    5.0276   -8.5227   17.5352 C   0  0  0  0  0  0  0  0  0  0  0  0
    9.8187   -2.0895   25.5800 C   0  0  0  0  0  0  0  0  0  0  0  0
    5.6473   -8.7216   15.3158 C   0  0  0  0  0  0  0  0  0  0  0  0
   10.7581   -3.1233   19.4720 N   0  0  0  0  0  0  0  0  0  0  0  0
    9.9571   -4.0573   16.8866 C   0  0  0  0  0  0  0  0  0  0  0  0
    7.6213   -6.5618   16.0087 C   0  0  0  0  0  0  0  0  0  0  0  0
   10.8583   -2.6527   20.7222 C   0  0  0  0  0  0  0  0  0  0  0  0
   10.6412   -3.5089   21.7936 C   0  0  0  0  0  0  0  0  0  0  0  0
   10.4972   -3.8968   24.1589 C   0  0  0  0  0  0  0  0  0  0  0  0
    5.9260   -8.2736   16.5517 C   0  0  0  0  0  0  0  0  0  0  0  0
    3.8816   -9.1166   17.2493 C   0  0  0  0  0  0  0  0  0  0  0  0
   10.1297   -1.6575   23.2324 C   0  0  0  0  0  0  0  0  0  0  0  0
    9.4684   -1.6929   26.7263 F   0  0  0  0  0  0  0  0  0  0  0  0
    7.7963   -7.7906   17.9837 C   0  0  0  0  0  0  0  0  0  0  0  0
   10.5884   -3.0725   16.7902 O   0  0  0  0  0  0  0  0  0  0  0  0
   10.4323   -5.3494   20.3516 C   0  0  0  0  0  0  0  0  0  0  0  0
    7.1156   -7.5454   16.8218 C   0  0  0  0  0  0  0  0  0  0  0  0
   10.3885   -4.4388   19.2773 C   0  0  0  0  0  0  0  0  0  0  0  0
    4.5160   -9.3822   15.0841 C   0  0  0  0  0  0  0  0  0  0  0  0
  1  3  4  0
  1 24  4  0
  2  6  4  0
  2 15  4  0
  3  5  4  0
  3  6  4  0
  4 21  4  0
  4 29  4  0
  5 15  4  0
  5 28  1  0
  6 16  4  0
  7 18  4  0
  7 26  4  0
  8 18  1  0
  8 19  4  0
  8 22  4  0
  9 12  4  0
  9 19  4  0
 10 12  4  0
 10 22  4  0
 11 20  4  0
 11 21  4  0
 12 23  1  0
 13 20  4  0
 13 29  4  0
 14 17  4  0
 14 28  4  0
 15 25  2  0
 16 27  4  0
 17 18  4  0
 20 27  1  0
 24 27  4  0
 26 28  4  0
M  END
$$$$

 Created by Python create_sdf_string function

 29 33  0  0  0  0  0  0  0  0999 V2000
    8.8270   -7.0288   18.4251 C   0  0  0  0  0  0  0  0  0  0  0  0
    9.1576   -4.6236   15.8860 O   0  0  0  0  0  0  0  0  0  0  0  0
    9.1509   -5.9108   17.7177 C   0  0  0  0  0  0  0  0  0  0  0  0
    3.6373   -9.5349   16.0582 N   0  0  0  0  0  0  0  0  0  0  0  0
    9.9275   -4.8001   18.0438 N   0  0  0  0  0  0  0  0  0  0  0  0
    8.5908   -5.7425   16.4412 C   0  0  0  0  0  0  0  0  0  0  0  0
   10.5993   -4.8981   21.6068 C   0  0  0  0  0  0  0  0  0  0  0  0
   10.4258   -3.0106   23.0998 C   0  0  0  0  0  0  0  0  0  0  0  0
   10.2148   -3.4364   25.4200 C   0  0  0  0  0  0  0  0  0  0  0  0
    9.7853   -1.1840   24.4927 C   0  0  0  0  0  0  0  0  0  0  0  0
    5.0276   -8.5227   17.5352 C   0  0  0  0  0  0  0  0  0  0  0  0
    9.8187   -2.0895   25.5800 C   0  0  0  0  0  0  0  0  0  0  0  0
    5.6473   -8.7216   15.3158 C   0  0  0  0  0  0  0  0  0  0  0  0
   10.7581   -3.1233   19.4720 N   0  0  0  0  0  0  0  0  0  0  0  0
    9.9571   -4.0573   16.8866 C   0  0  0  0  0  0  0  0  0  0  0  0
    7.6213   -6.5618   16.0087 C   0  0  0  0  0  0  0  0  0  0  0  0
   10.8583   -2.6527   20.7222 C   0  0  0  0  0  0  0  0  0  0  0  0
   10.6412   -3.5089   21.7936 C   0  0  0  0  0  0  0  0  0  0  0  0
   10.4972   -3.8968   24.1589 C   0  0  0  0  0  0  0  0  0  0  0  0
    5.9260   -8.2736   16.5517 C   0  0  0  0  0  0  0  0  0  0  0  0
    3.8816   -9.1166   17.2493 C   0  0  0  0  0  0  0  0  0  0  0  0
   10.1297   -1.6575   23.2324 C   0  0  0  0  0  0  0  0  0  0  0  0
    9.4684   -1.6929   26.7263 F   0  0  0  0  0  0  0  0  0  0  0  0
    7.7963   -7.7906   17.9837 C   0  0  0  0  0  0  0  0  0  0  0  0
   10.5884   -3.0725   16.7902 O   0  0  0  0  0  0  0  0  0  0  0  0
   10.4323   -5.3494   20.3516 C   0  0  0  0  0  0  0  0  0  0  0  0
    7.1156   -7.5454   16.8218 C   0  0  0  0  0  0  0  0  0  0  0  0
   10.3885   -4.4388   19.2773 C   0  0  0  0  0  0  0  0  0  0  0  0
    4.5160   -9.3822   15.0841 C   0  0  0  0  0  0  0  0  0  0  0  0
  1  3  4  0
  1 24  4  0
  2  6  4  0
  2 15  4  0
  3  5  4  0
  3  6  4  0
  4 21  4  0
  4 29  4  0
  5 15  4  0
  5 28  1  0
  6 16  4  0
  7 18  4  0
  7 26  4  0
  8 18  1  0
  8 19  4  0
  8 22  4  0
  9 12  4  0
  9 19  4  0
 10 12  4  0
 10 22  4  0
 11 20  4  0
 11 21  4  0
 12 23  1  0
 13 20  4  0
 13 29  4  0
 14 17  4  0
 14 28  4  0
 15 25  2  0
 16 27  4  0
 17 18  4  0
 20 27  1  0
 24 27  4  0
 26 28  4  0
M  END
$$$$

 Created by Python create_sdf_string function

 29 33  0  0  0  0  0  0  0  0999 V2000
    8.8270   -7.0288   18.4251 C   0  0  0  0  0  0  0  0  0  0  0  0
    9.1576   -4.6236   15.8860 O   0  0  0  0  0  0  0  0  0  0  0  0
    9.1509   -5.9108   17.7177 C   0  0  0  0  0  0  0  0  0  0  0  0
    3.6373   -9.5349   16.0582 N   0  0  0  0  0  0  0  0  0  0  0  0
    9.9275   -4.8001   18.0438 N   0  0  0  0  0  0  0  0  0  0  0  0
    8.5908   -5.7425   16.4412 C   0  0  0  0  0  0  0  0  0  0  0  0
   10.5993   -4.8981   21.6068 C   0  0  0  0  0  0  0  0  0  0  0  0
   10.4258   -3.0106   23.0998 C   0  0  0  0  0  0  0  0  0  0  0  0
   10.2148   -3.4364   25.4200 C   0  0  0  0  0  0  0  0  0  0  0  0
    9.7853   -1.1840   24.4927 C   0  0  0  0  0  0  0  0  0  0  0  0
    5.0276   -8.5227   17.5352 C   0  0  0  0  0  0  0  0  0  0  0  0
    9.8187   -2.0895   25.5800 C   0  0  0  0  0  0  0  0  0  0  0  0
    5.6473   -8.7216   15.3158 C   0  0  0  0  0  0  0  0  0  0  0  0
   10.7581   -3.1233   19.4720 N   0  0  0  0  0  0  0  0  0  0  0  0
    9.9571   -4.0573   16.8866 C   0  0  0  0  0  0  0  0  0  0  0  0
    7.6213   -6.5618   16.0087 C   0  0  0  0  0  0  0  0  0  0  0  0
   10.8583   -2.6527   20.7222 C   0  0  0  0  0  0  0  0  0  0  0  0
   10.6412   -3.5089   21.7936 C   0  0  0  0  0  0  0  0  0  0  0  0
   10.4972   -3.8968   24.1589 C   0  0  0  0  0  0  0  0  0  0  0  0
    5.9260   -8.2736   16.5517 C   0  0  0  0  0  0  0  0  0  0  0  0
    3.8816   -9.1166   17.2493 C   0  0  0  0  0  0  0  0  0  0  0  0
   10.1297   -1.6575   23.2324 C   0  0  0  0  0  0  0  0  0  0  0  0
    9.4684   -1.6929   26.7263 F   0  0  0  0  0  0  0  0  0  0  0  0
    7.7963   -7.7906   17.9837 C   0  0  0  0  0  0  0  0  0  0  0  0
   10.5884   -3.0725   16.7902 O   0  0  0  0  0  0  0  0  0  0  0  0
   10.4323   -5.3494   20.3516 C   0  0  0  0  0  0  0  0  0  0  0  0
    7.1156   -7.5454   16.8218 C   0  0  0  0  0  0  0  0  0  0  0  0
   10.3885   -4.4388   19.2773 C   0  0  0  0  0  0  0  0  0  0  0  0
    4.5160   -9.3822   15.0841 C   0  0  0  0  0  0  0  0  0  0  0  0
  1  3  4  0
  1 24  4  0
  2  6  4  0
  2 15  4  0
  3  5  4  0
  3  6  4  0
  4 21  4  0
  4 29  4  0
  5 15  4  0
  5 28  1  0
  6 16  4  0
  7 18  4  0
  7 26  4  0
  8 18  1  0
  8 19  4  0
  8 22  4  0
  9 12  4  0
  9 19  4  0
 10 12  4  0
 10 22  4  0
 11 20  4  0
 11 21  4  0
 12 23  1  0
 13 20  4  0
 13 29  4  0
 14 17  4  0
 14 28  4  0
 15 25  2  0
 16 27  4  0
 17 18  4  0
 20 27  1  0
 24 27  4  0
 26 28  4  0
M  END
$$$$

 Created by Python create_sdf_string function

 29 33  0  0  0  0  0  0  0  0999 V2000
    8.8270   -7.0288   18.4251 C   0  0  0  0  0  0  0  0  0  0  0  0
    9.1576   -4.6236   15.8860 O   0  0  0  0  0  0  0  0  0  0  0  0
    9.1509   -5.9108   17.7177 C   0  0  0  0  0  0  0  0  0  0  0  0
    3.6373   -9.5349   16.0582 N   0  0  0  0  0  0  0  0  0  0  0  0
    9.9275   -4.8001   18.0438 N   0  0  0  0  0  0  0  0  0  0  0  0
    8.5908   -5.7425   16.4412 C   0  0  0  0  0  0  0  0  0  0  0  0
   10.5993   -4.8981   21.6068 C   0  0  0  0  0  0  0  0  0  0  0  0
   10.4258   -3.0106   23.0998 C   0  0  0  0  0  0  0  0  0  0  0  0
   10.2148   -3.4364   25.4200 C   0  0  0  0  0  0  0  0  0  0  0  0
    9.7853   -1.1840   24.4927 C   0  0  0  0  0  0  0  0  0  0  0  0
    5.0276   -8.5227   17.5352 C   0  0  0  0  0  0  0  0  0  0  0  0
    9.8187   -2.0895   25.5800 C   0  0  0  0  0  0  0  0  0  0  0  0
    5.6473   -8.7216   15.3158 C   0  0  0  0  0  0  0  0  0  0  0  0
   10.7581   -3.1233   19.4720 N   0  0  0  0  0  0  0  0  0  0  0  0
    9.9571   -4.0573   16.8866 C   0  0  0  0  0  0  0  0  0  0  0  0
    7.6213   -6.5618   16.0087 C   0  0  0  0  0  0  0  0  0  0  0  0
   10.8583   -2.6527   20.7222 C   0  0  0  0  0  0  0  0  0  0  0  0
   10.6412   -3.5089   21.7936 C   0  0  0  0  0  0  0  0  0  0  0  0
   10.4972   -3.8968   24.1589 C   0  0  0  0  0  0  0  0  0  0  0  0
    5.9260   -8.2736   16.5517 C   0  0  0  0  0  0  0  0  0  0  0  0
    3.8816   -9.1166   17.2493 C   0  0  0  0  0  0  0  0  0  0  0  0
   10.1297   -1.6575   23.2324 C   0  0  0  0  0  0  0  0  0  0  0  0
    9.4684   -1.6929   26.7263 F   0  0  0  0  0  0  0  0  0  0  0  0
    7.7963   -7.7906   17.9837 C   0  0  0  0  0  0  0  0  0  0  0  0
   10.5884   -3.0725   16.7902 O   0  0  0  0  0  0  0  0  0  0  0  0
   10.4323   -5.3494   20.3516 C   0  0  0  0  0  0  0  0  0  0  0  0
    7.1156   -7.5454   16.8218 C   0  0  0  0  0  0  0  0  0  0  0  0
   10.3885   -4.4388   19.2773 C   0  0  0  0  0  0  0  0  0  0  0  0
    4.5160   -9.3822   15.0841 C   0  0  0  0  0  0  0  0  0  0  0  0
  1  3  4  0
  1 24  4  0
  2  6  4  0
  2 15  4  0
  3  5  4  0
  3  6  4  0
  4 21  4  0
  4 29  4  0
  5 15  4  0
  5 28  1  0
  6 16  4  0
  7 18  4  0
  7 26  4  0
  8 18  1  0
  8 19  4  0
  8 22  4  0
  9 12  4  0
  9 19  4  0
 10 12  4  0
 10 22  4  0
 11 20  4  0
 11 21  4  0
 12 23  1  0
 13 20  4  0
 13 29  4  0
 14 17  4  0
 14 28  4  0
 15 25  2  0
 16 27  4  0
 17 18  4  0
 20 27  1  0
 24 27  4  0
 26 28  4  0
M  END
$$$$

 Created by Python create_sdf_string function

 29 33  0  0  0  0  0  0  0  0999 V2000
    8.8270   -7.0288   18.4251 C   0  0  0  0  0  0  0  0  0  0  0  0
    9.1576   -4.6236   15.8860 O   0  0  0  0  0  0  0  0  0  0  0  0
    9.1509   -5.9108   17.7177 C   0  0  0  0  0  0  0  0  0  0  0  0
    3.6373   -9.5349   16.0582 N   0  0  0  0  0  0  0  0  0  0  0  0
    9.9275   -4.8001   18.0438 N   0  0  0  0  0  0  0  0  0  0  0  0
    8.5908   -5.7425   16.4412 C   0  0  0  0  0  0  0  0  0  0  0  0
   10.5993   -4.8981   21.6068 C   0  0  0  0  0  0  0  0  0  0  0  0
   10.4258   -3.0106   23.0998 C   0  0  0  0  0  0  0  0  0  0  0  0
   10.2148   -3.4364   25.4200 C   0  0  0  0  0  0  0  0  0  0  0  0
    9.7853   -1.1840   24.4927 C   0  0  0  0  0  0  0  0  0  0  0  0
    5.0276   -8.5227   17.5352 C   0  0  0  0  0  0  0  0  0  0  0  0
    9.8187   -2.0895   25.5800 C   0  0  0  0  0  0  0  0  0  0  0  0
    5.6473   -8.7216   15.3158 C   0  0  0  0  0  0  0  0  0  0  0  0
   10.7581   -3.1233   19.4720 N   0  0  0  0  0  0  0  0  0  0  0  0
    9.9571   -4.0573   16.8866 C   0  0  0  0  0  0  0  0  0  0  0  0
    7.6213   -6.5618   16.0087 C   0  0  0  0  0  0  0  0  0  0  0  0
   10.8583   -2.6527   20.7222 C   0  0  0  0  0  0  0  0  0  0  0  0
   10.6412   -3.5089   21.7936 C   0  0  0  0  0  0  0  0  0  0  0  0
   10.4972   -3.8968   24.1589 C   0  0  0  0  0  0  0  0  0  0  0  0
    5.9260   -8.2736   16.5517 C   0  0  0  0  0  0  0  0  0  0  0  0
    3.8816   -9.1166   17.2493 C   0  0  0  0  0  0  0  0  0  0  0  0
   10.1297   -1.6575   23.2324 C   0  0  0  0  0  0  0  0  0  0  0  0
    9.4684   -1.6929   26.7263 F   0  0  0  0  0  0  0  0  0  0  0  0
    7.7963   -7.7906   17.9837 C   0  0  0  0  0  0  0  0  0  0  0  0
   10.5884   -3.0725   16.7902 O   0  0  0  0  0  0  0  0  0  0  0  0
   10.4323   -5.3494   20.3516 C   0  0  0  0  0  0  0  0  0  0  0  0
    7.1156   -7.5454   16.8218 C   0  0  0  0  0  0  0  0  0  0  0  0
   10.3885   -4.4388   19.2773 C   0  0  0  0  0  0  0  0  0  0  0  0
    4.5160   -9.3822   15.0841 C   0  0  0  0  0  0  0  0  0  0  0  0
  1  3  4  0
  1 24  4  0
  2  6  4  0
  2 15  4  0
  3  5  4  0
  3  6  4  0
  4 21  4  0
  4 29  4  0
  5 15  4  0
  5 28  1  0
  6 16  4  0
  7 18  4  0
  7 26  4  0
  8 18  1  0
  8 19  4  0
  8 22  4  0
  9 12  4  0
  9 19  4  0
 10 12  4  0
 10 22  4  0
 11 20  4  0
 11 21  4  0
 12 23  1  0
 13 20  4  0
 13 29  4  0
 14 17  4  0
 14 28  4  0
 15 25  2  0
 16 27  4  0
 17 18  4  0
 20 27  1  0
 24 27  4  0
 26 28  4  0
M  END
$$$$

 Created by Python create_sdf_string function

 29 33  0  0  0  0  0  0  0  0999 V2000
    8.8270   -7.0288   18.4251 C   0  0  0  0  0  0  0  0  0  0  0  0
    9.1576   -4.6236   15.8860 O   0  0  0  0  0  0  0  0  0  0  0  0
    9.1509   -5.9108   17.7177 C   0  0  0  0  0  0  0  0  0  0  0  0
    3.6373   -9.5349   16.0582 N   0  0  0  0  0  0  0  0  0  0  0  0
    9.9275   -4.8001   18.0438 N   0  0  0  0  0  0  0  0  0  0  0  0
    8.5908   -5.7425   16.4412 C   0  0  0  0  0  0  0  0  0  0  0  0
   10.5993   -4.8981   21.6068 C   0  0  0  0  0  0  0  0  0  0  0  0
   10.4258   -3.0106   23.0998 C   0  0  0  0  0  0  0  0  0  0  0  0
   10.2148   -3.4364   25.4200 C   0  0  0  0  0  0  0  0  0  0  0  0
    9.7853   -1.1840   24.4927 C   0  0  0  0  0  0  0  0  0  0  0  0
    5.0276   -8.5227   17.5352 C   0  0  0  0  0  0  0  0  0  0  0  0
    9.8187   -2.0895   25.5800 C   0  0  0  0  0  0  0  0  0  0  0  0
    5.6473   -8.7216   15.3158 C   0  0  0  0  0  0  0  0  0  0  0  0
   10.7581   -3.1233   19.4720 N   0  0  0  0  0  0  0  0  0  0  0  0
    9.9571   -4.0573   16.8866 C   0  0  0  0  0  0  0  0  0  0  0  0
    7.6213   -6.5618   16.0087 C   0  0  0  0  0  0  0  0  0  0  0  0
   10.8583   -2.6527   20.7222 C   0  0  0  0  0  0  0  0  0  0  0  0
   10.6412   -3.5089   21.7936 C   0  0  0  0  0  0  0  0  0  0  0  0
   10.4972   -3.8968   24.1589 C   0  0  0  0  0  0  0  0  0  0  0  0
    5.9260   -8.2736   16.5517 C   0  0  0  0  0  0  0  0  0  0  0  0
    3.8816   -9.1166   17.2493 C   0  0  0  0  0  0  0  0  0  0  0  0
   10.1297   -1.6575   23.2324 C   0  0  0  0  0  0  0  0  0  0  0  0
    9.4684   -1.6929   26.7263 F   0  0  0  0  0  0  0  0  0  0  0  0
    7.7963   -7.7906   17.9837 C   0  0  0  0  0  0  0  0  0  0  0  0
   10.5884   -3.0725   16.7902 O   0  0  0  0  0  0  0  0  0  0  0  0
   10.4323   -5.3494   20.3516 C   0  0  0  0  0  0  0  0  0  0  0  0
    7.1156   -7.5454   16.8218 C   0  0  0  0  0  0  0  0  0  0  0  0
   10.3885   -4.4388   19.2773 C   0  0  0  0  0  0  0  0  0  0  0  0
    4.5160   -9.3822   15.0841 C   0  0  0  0  0  0  0  0  0  0  0  0
  1  3  4  0
  1 24  4  0
  2  6  4  0
  2 15  4  0
  3  5  4  0
  3  6  4  0
  4 21  4  0
  4 29  4  0
  5 15  4  0
  5 28  1  0
  6 16  4  0
  7 18  4  0
  7 26  4  0
  8 18  1  0
  8 19  4  0
  8 22  4  0
  9 12  4  0
  9 19  4  0
 10 12  4  0
 10 22  4  0
 11 20  4  0
 11 21  4  0
 12 23  1  0
 13 20  4  0
 13 29  4  0
 14 17  4  0
 14 28  4  0
 15 25  2  0
 16 27  4  0
 17 18  4  0
 20 27  1  0
 24 27  4  0
 26 28  4  0
M  END
$$$$

 Created by Python create_sdf_string function

 29 33  0  0  0  0  0  0  0  0999 V2000
    8.8270   -7.0288   18.4251 C   0  0  0  0  0  0  0  0  0  0  0  0
    9.1576   -4.6236   15.8860 O   0  0  0  0  0  0  0  0  0  0  0  0
    9.1509   -5.9108   17.7177 C   0  0  0  0  0  0  0  0  0  0  0  0
    3.6373   -9.5349   16.0582 N   0  0  0  0  0  0  0  0  0  0  0  0
    9.9275   -4.8001   18.0438 N   0  0  0  0  0  0  0  0  0  0  0  0
    8.5908   -5.7425   16.4412 C   0  0  0  0  0  0  0  0  0  0  0  0
   10.5993   -4.8981   21.6068 C   0  0  0  0  0  0  0  0  0  0  0  0
   10.4258   -3.0106   23.0998 C   0  0  0  0  0  0  0  0  0  0  0  0
   10.2148   -3.4364   25.4200 C   0  0  0  0  0  0  0  0  0  0  0  0
    9.7853   -1.1840   24.4927 C   0  0  0  0  0  0  0  0  0  0  0  0
    5.0276   -8.5227   17.5352 C   0  0  0  0  0  0  0  0  0  0  0  0
    9.8187   -2.0895   25.5800 C   0  0  0  0  0  0  0  0  0  0  0  0
    5.6473   -8.7216   15.3158 C   0  0  0  0  0  0  0  0  0  0  0  0
   10.7581   -3.1233   19.4720 N   0  0  0  0  0  0  0  0  0  0  0  0
    9.9571   -4.0573   16.8866 C   0  0  0  0  0  0  0  0  0  0  0  0
    7.6213   -6.5618   16.0087 C   0  0  0  0  0  0  0  0  0  0  0  0
   10.8583   -2.6527   20.7222 C   0  0  0  0  0  0  0  0  0  0  0  0
   10.6412   -3.5089   21.7936 C   0  0  0  0  0  0  0  0  0  0  0  0
   10.4972   -3.8968   24.1589 C   0  0  0  0  0  0  0  0  0  0  0  0
    5.9260   -8.2736   16.5517 C   0  0  0  0  0  0  0  0  0  0  0  0
    3.8816   -9.1166   17.2493 C   0  0  0  0  0  0  0  0  0  0  0  0
   10.1297   -1.6575   23.2324 C   0  0  0  0  0  0  0  0  0  0  0  0
    9.4684   -1.6929   26.7263 F   0  0  0  0  0  0  0  0  0  0  0  0
    7.7963   -7.7906   17.9837 C   0  0  0  0  0  0  0  0  0  0  0  0
   10.5884   -3.0725   16.7902 O   0  0  0  0  0  0  0  0  0  0  0  0
   10.4323   -5.3494   20.3516 C   0  0  0  0  0  0  0  0  0  0  0  0
    7.1156   -7.5454   16.8218 C   0  0  0  0  0  0  0  0  0  0  0  0
   10.3885   -4.4388   19.2773 C   0  0  0  0  0  0  0  0  0  0  0  0
    4.5160   -9.3822   15.0841 C   0  0  0  0  0  0  0  0  0  0  0  0
  1  3  4  0
  1 24  4  0
  2  6  4  0
  2 15  4  0
  3  5  4  0
  3  6  4  0
  4 21  4  0
  4 29  4  0
  5 15  4  0
  5 28  1  0
  6 16  4  0
  7 18  4  0
  7 26  4  0
  8 18  1  0
  8 19  4  0
  8 22  4  0
  9 12  4  0
  9 19  4  0
 10 12  4  0
 10 22  4  0
 11 20  4  0
 11 21  4  0
 12 23  1  0
 13 20  4  0
 13 29  4  0
 14 17  4  0
 14 28  4  0
 15 25  2  0
 16 27  4  0
 17 18  4  0
 20 27  1  0
 24 27  4  0
 26 28  4  0
M  END
$$$$

 Created by Python create_sdf_string function

 29 33  0  0  0  0  0  0  0  0999 V2000
    8.8270   -7.0288   18.4251 C   0  0  0  0  0  0  0  0  0  0  0  0
    9.1576   -4.6236   15.8860 O   0  0  0  0  0  0  0  0  0  0  0  0
    9.1509   -5.9108   17.7177 C   0  0  0  0  0  0  0  0  0  0  0  0
    3.6373   -9.5349   16.0582 N   0  0  0  0  0  0  0  0  0  0  0  0
    9.9275   -4.8001   18.0438 N   0  0  0  0  0  0  0  0  0  0  0  0
    8.5908   -5.7425   16.4412 C   0  0  0  0  0  0  0  0  0  0  0  0
   10.5993   -4.8981   21.6068 C   0  0  0  0  0  0  0  0  0  0  0  0
   10.4258   -3.0106   23.0998 C   0  0  0  0  0  0  0  0  0  0  0  0
   10.2148   -3.4364   25.4200 C   0  0  0  0  0  0  0  0  0  0  0  0
    9.7853   -1.1840   24.4927 C   0  0  0  0  0  0  0  0  0  0  0  0
    5.0276   -8.5227   17.5352 C   0  0  0  0  0  0  0  0  0  0  0  0
    9.8187   -2.0895   25.5800 C   0  0  0  0  0  0  0  0  0  0  0  0
    5.6473   -8.7216   15.3158 C   0  0  0  0  0  0  0  0  0  0  0  0
   10.7581   -3.1233   19.4720 N   0  0  0  0  0  0  0  0  0  0  0  0
    9.9571   -4.0573   16.8866 C   0  0  0  0  0  0  0  0  0  0  0  0
    7.6213   -6.5618   16.0087 C   0  0  0  0  0  0  0  0  0  0  0  0
   10.8583   -2.6527   20.7222 C   0  0  0  0  0  0  0  0  0  0  0  0
   10.6412   -3.5089   21.7936 C   0  0  0  0  0  0  0  0  0  0  0  0
   10.4972   -3.8968   24.1589 C   0  0  0  0  0  0  0  0  0  0  0  0
    5.9260   -8.2736   16.5517 C   0  0  0  0  0  0  0  0  0  0  0  0
    3.8816   -9.1166   17.2493 C   0  0  0  0  0  0  0  0  0  0  0  0
   10.1297   -1.6575   23.2324 C   0  0  0  0  0  0  0  0  0  0  0  0
    9.4684   -1.6929   26.7263 F   0  0  0  0  0  0  0  0  0  0  0  0
    7.7963   -7.7906   17.9837 C   0  0  0  0  0  0  0  0  0  0  0  0
   10.5884   -3.0725   16.7902 O   0  0  0  0  0  0  0  0  0  0  0  0
   10.4323   -5.3494   20.3516 C   0  0  0  0  0  0  0  0  0  0  0  0
    7.1156   -7.5454   16.8218 C   0  0  0  0  0  0  0  0  0  0  0  0
   10.3885   -4.4388   19.2773 C   0  0  0  0  0  0  0  0  0  0  0  0
    4.5160   -9.3822   15.0841 C   0  0  0  0  0  0  0  0  0  0  0  0
  1  3  4  0
  1 24  4  0
  2  6  4  0
  2 15  4  0
  3  5  4  0
  3  6  4  0
  4 21  4  0
  4 29  4  0
  5 15  4  0
  5 28  1  0
  6 16  4  0
  7 18  4  0
  7 26  4  0
  8 18  1  0
  8 19  4  0
  8 22  4  0
  9 12  4  0
  9 19  4  0
 10 12  4  0
 10 22  4  0
 11 20  4  0
 11 21  4  0
 12 23  1  0
 13 20  4  0
 13 29  4  0
 14 17  4  0
 14 28  4  0
 15 25  2  0
 16 27  4  0
 17 18  4  0
 20 27  1  0
 24 27  4  0
 26 28  4  0
M  END
$$$$

 Created by Python create_sdf_string function

 29 33  0  0  0  0  0  0  0  0999 V2000
    8.8270   -7.0288   18.4251 C   0  0  0  0  0  0  0  0  0  0  0  0
    9.1576   -4.6236   15.8860 O   0  0  0  0  0  0  0  0  0  0  0  0
    9.1509   -5.9108   17.7177 C   0  0  0  0  0  0  0  0  0  0  0  0
    3.6373   -9.5349   16.0582 N   0  0  0  0  0  0  0  0  0  0  0  0
    9.9275   -4.8001   18.0438 N   0  0  0  0  0  0  0  0  0  0  0  0
    8.5908   -5.7425   16.4412 C   0  0  0  0  0  0  0  0  0  0  0  0
   10.5993   -4.8981   21.6068 C   0  0  0  0  0  0  0  0  0  0  0  0
   10.4258   -3.0106   23.0998 C   0  0  0  0  0  0  0  0  0  0  0  0
   10.2148   -3.4364   25.4200 C   0  0  0  0  0  0  0  0  0  0  0  0
    9.7853   -1.1840   24.4927 C   0  0  0  0  0  0  0  0  0  0  0  0
    5.0276   -8.5227   17.5352 C   0  0  0  0  0  0  0  0  0  0  0  0
    9.8187   -2.0895   25.5800 C   0  0  0  0  0  0  0  0  0  0  0  0
    5.6473   -8.7216   15.3158 C   0  0  0  0  0  0  0  0  0  0  0  0
   10.7581   -3.1233   19.4720 N   0  0  0  0  0  0  0  0  0  0  0  0
    9.9571   -4.0573   16.8866 C   0  0  0  0  0  0  0  0  0  0  0  0
    7.6213   -6.5618   16.0087 C   0  0  0  0  0  0  0  0  0  0  0  0
   10.8583   -2.6527   20.7222 C   0  0  0  0  0  0  0  0  0  0  0  0
   10.6412   -3.5089   21.7936 C   0  0  0  0  0  0  0  0  0  0  0  0
   10.4972   -3.8968   24.1589 C   0  0  0  0  0  0  0  0  0  0  0  0
    5.9260   -8.2736   16.5517 C   0  0  0  0  0  0  0  0  0  0  0  0
    3.8816   -9.1166   17.2493 C   0  0  0  0  0  0  0  0  0  0  0  0
   10.1297   -1.6575   23.2324 C   0  0  0  0  0  0  0  0  0  0  0  0
    9.4684   -1.6929   26.7263 F   0  0  0  0  0  0  0  0  0  0  0  0
    7.7963   -7.7906   17.9837 C   0  0  0  0  0  0  0  0  0  0  0  0
   10.5884   -3.0725   16.7902 O   0  0  0  0  0  0  0  0  0  0  0  0
   10.4323   -5.3494   20.3516 C   0  0  0  0  0  0  0  0  0  0  0  0
    7.1156   -7.5454   16.8218 C   0  0  0  0  0  0  0  0  0  0  0  0
   10.3885   -4.4388   19.2773 C   0  0  0  0  0  0  0  0  0  0  0  0
    4.5160   -9.3822   15.0841 C   0  0  0  0  0  0  0  0  0  0  0  0
  1  3  4  0
  1 24  4  0
  2  6  4  0
  2 15  4  0
  3  5  4  0
  3  6  4  0
  4 21  4  0
  4 29  4  0
  5 15  4  0
  5 28  1  0
  6 16  4  0
  7 18  4  0
  7 26  4  0
  8 18  1  0
  8 19  4  0
  8 22  4  0
  9 12  4  0
  9 19  4  0
 10 12  4  0
 10 22  4  0
 11 20  4  0
 11 21  4  0
 12 23  1  0
 13 20  4  0
 13 29  4  0
 14 17  4  0
 14 28  4  0
 15 25  2  0
 16 27  4  0
 17 18  4  0
 20 27  1  0
 24 27  4  0
 26 28  4  0
M  END
$$$$

 Created by Python create_sdf_string function

 29 33  0  0  0  0  0  0  0  0999 V2000
    8.8270   -7.0288   18.4251 C   0  0  0  0  0  0  0  0  0  0  0  0
    9.1576   -4.6236   15.8860 O   0  0  0  0  0  0  0  0  0  0  0  0
    9.1509   -5.9108   17.7177 C   0  0  0  0  0  0  0  0  0  0  0  0
    3.6373   -9.5349   16.0582 N   0  0  0  0  0  0  0  0  0  0  0  0
    9.9275   -4.8001   18.0438 N   0  0  0  0  0  0  0  0  0  0  0  0
    8.5908   -5.7425   16.4412 C   0  0  0  0  0  0  0  0  0  0  0  0
   10.5993   -4.8981   21.6068 C   0  0  0  0  0  0  0  0  0  0  0  0
   10.4258   -3.0106   23.0998 C   0  0  0  0  0  0  0  0  0  0  0  0
   10.2148   -3.4364   25.4200 C   0  0  0  0  0  0  0  0  0  0  0  0
    9.7853   -1.1840   24.4927 C   0  0  0  0  0  0  0  0  0  0  0  0
    5.0276   -8.5227   17.5352 C   0  0  0  0  0  0  0  0  0  0  0  0
    9.8187   -2.0895   25.5800 C   0  0  0  0  0  0  0  0  0  0  0  0
    5.6473   -8.7216   15.3158 C   0  0  0  0  0  0  0  0  0  0  0  0
   10.7581   -3.1233   19.4720 N   0  0  0  0  0  0  0  0  0  0  0  0
    9.9571   -4.0573   16.8866 C   0  0  0  0  0  0  0  0  0  0  0  0
    7.6213   -6.5618   16.0087 C   0  0  0  0  0  0  0  0  0  0  0  0
   10.8583   -2.6527   20.7222 C   0  0  0  0  0  0  0  0  0  0  0  0
   10.6412   -3.5089   21.7936 C   0  0  0  0  0  0  0  0  0  0  0  0
   10.4972   -3.8968   24.1589 C   0  0  0  0  0  0  0  0  0  0  0  0
    5.9260   -8.2736   16.5517 C   0  0  0  0  0  0  0  0  0  0  0  0
    3.8816   -9.1166   17.2493 C   0  0  0  0  0  0  0  0  0  0  0  0
   10.1297   -1.6575   23.2324 C   0  0  0  0  0  0  0  0  0  0  0  0
    9.4684   -1.6929   26.7263 F   0  0  0  0  0  0  0  0  0  0  0  0
    7.7963   -7.7906   17.9837 C   0  0  0  0  0  0  0  0  0  0  0  0
   10.5884   -3.0725   16.7902 O   0  0  0  0  0  0  0  0  0  0  0  0
   10.4323   -5.3494   20.3516 C   0  0  0  0  0  0  0  0  0  0  0  0
    7.1156   -7.5454   16.8218 C   0  0  0  0  0  0  0  0  0  0  0  0
   10.3885   -4.4388   19.2773 C   0  0  0  0  0  0  0  0  0  0  0  0
    4.5160   -9.3822   15.0841 C   0  0  0  0  0  0  0  0  0  0  0  0
  1  3  4  0
  1 24  4  0
  2  6  4  0
  2 15  4  0
  3  5  4  0
  3  6  4  0
  4 21  4  0
  4 29  4  0
  5 15  4  0
  5 28  1  0
  6 16  4  0
  7 18  4  0
  7 26  4  0
  8 18  1  0
  8 19  4  0
  8 22  4  0
  9 12  4  0
  9 19  4  0
 10 12  4  0
 10 22  4  0
 11 20  4  0
 11 21  4  0
 12 23  1  0
 13 20  4  0
 13 29  4  0
 14 17  4  0
 14 28  4  0
 15 25  2  0
 16 27  4  0
 17 18  4  0
 20 27  1  0
 24 27  4  0
 26 28  4  0
M  END
$$$$

 Created by Python create_sdf_string function

 29 33  0  0  0  0  0  0  0  0999 V2000
    8.8270   -7.0288   18.4251 C   0  0  0  0  0  0  0  0  0  0  0  0
    9.1576   -4.6236   15.8860 O   0  0  0  0  0  0  0  0  0  0  0  0
    9.1509   -5.9108   17.7177 C   0  0  0  0  0  0  0  0  0  0  0  0
    3.6373   -9.5349   16.0582 N   0  0  0  0  0  0  0  0  0  0  0  0
    9.9275   -4.8001   18.0438 N   0  0  0  0  0  0  0  0  0  0  0  0
    8.5908   -5.7425   16.4412 C   0  0  0  0  0  0  0  0  0  0  0  0
   10.5993   -4.8981   21.6068 C   0  0  0  0  0  0  0  0  0  0  0  0
   10.4258   -3.0106   23.0998 C   0  0  0  0  0  0  0  0  0  0  0  0
   10.2148   -3.4364   25.4200 C   0  0  0  0  0  0  0  0  0  0  0  0
    9.7853   -1.1840   24.4927 C   0  0  0  0  0  0  0  0  0  0  0  0
    5.0276   -8.5227   17.5352 C   0  0  0  0  0  0  0  0  0  0  0  0
    9.8187   -2.0895   25.5800 C   0  0  0  0  0  0  0  0  0  0  0  0
    5.6473   -8.7216   15.3158 C   0  0  0  0  0  0  0  0  0  0  0  0
   10.7581   -3.1233   19.4720 N   0  0  0  0  0  0  0  0  0  0  0  0
    9.9571   -4.0573   16.8866 C   0  0  0  0  0  0  0  0  0  0  0  0
    7.6213   -6.5618   16.0087 C   0  0  0  0  0  0  0  0  0  0  0  0
   10.8583   -2.6527   20.7222 C   0  0  0  0  0  0  0  0  0  0  0  0
   10.6412   -3.5089   21.7936 C   0  0  0  0  0  0  0  0  0  0  0  0
   10.4972   -3.8968   24.1589 C   0  0  0  0  0  0  0  0  0  0  0  0
    5.9260   -8.2736   16.5517 C   0  0  0  0  0  0  0  0  0  0  0  0
    3.8816   -9.1166   17.2493 C   0  0  0  0  0  0  0  0  0  0  0  0
   10.1297   -1.6575   23.2324 C   0  0  0  0  0  0  0  0  0  0  0  0
    9.4684   -1.6929   26.7263 F   0  0  0  0  0  0  0  0  0  0  0  0
    7.7963   -7.7906   17.9837 C   0  0  0  0  0  0  0  0  0  0  0  0
   10.5884   -3.0725   16.7902 O   0  0  0  0  0  0  0  0  0  0  0  0
   10.4323   -5.3494   20.3516 C   0  0  0  0  0  0  0  0  0  0  0  0
    7.1156   -7.5454   16.8218 C   0  0  0  0  0  0  0  0  0  0  0  0
   10.3885   -4.4388   19.2773 C   0  0  0  0  0  0  0  0  0  0  0  0
    4.5160   -9.3822   15.0841 C   0  0  0  0  0  0  0  0  0  0  0  0
  1  3  4  0
  1 24  4  0
  2  6  4  0
  2 15  4  0
  3  5  4  0
  3  6  4  0
  4 21  4  0
  4 29  4  0
  5 15  4  0
  5 28  1  0
  6 16  4  0
  7 18  4  0
  7 26  4  0
  8 18  1  0
  8 19  4  0
  8 22  4  0
  9 12  4  0
  9 19  4  0
 10 12  4  0
 10 22  4  0
 11 20  4  0
 11 21  4  0
 12 23  1  0
 13 20  4  0
 13 29  4  0
 14 17  4  0
 14 28  4  0
 15 25  2  0
 16 27  4  0
 17 18  4  0
 20 27  1  0
 24 27  4  0
 26 28  4  0
M  END
$$$$

 Created by Python create_sdf_string function

 29 33  0  0  0  0  0  0  0  0999 V2000
    8.8270   -7.0288   18.4251 C   0  0  0  0  0  0  0  0  0  0  0  0
    9.1576   -4.6236   15.8860 O   0  0  0  0  0  0  0  0  0  0  0  0
    9.1509   -5.9108   17.7177 C   0  0  0  0  0  0  0  0  0  0  0  0
    3.6373   -9.5349   16.0582 N   0  0  0  0  0  0  0  0  0  0  0  0
    9.9275   -4.8001   18.0438 N   0  0  0  0  0  0  0  0  0  0  0  0
    8.5908   -5.7425   16.4412 C   0  0  0  0  0  0  0  0  0  0  0  0
   10.5993   -4.8981   21.6068 C   0  0  0  0  0  0  0  0  0  0  0  0
   10.4258   -3.0106   23.0998 C   0  0  0  0  0  0  0  0  0  0  0  0
   10.2148   -3.4364   25.4200 C   0  0  0  0  0  0  0  0  0  0  0  0
    9.7853   -1.1840   24.4927 C   0  0  0  0  0  0  0  0  0  0  0  0
    5.0276   -8.5227   17.5352 C   0  0  0  0  0  0  0  0  0  0  0  0
    9.8187   -2.0895   25.5800 C   0  0  0  0  0  0  0  0  0  0  0  0
    5.6473   -8.7216   15.3158 C   0  0  0  0  0  0  0  0  0  0  0  0
   10.7581   -3.1233   19.4720 N   0  0  0  0  0  0  0  0  0  0  0  0
    9.9571   -4.0573   16.8866 C   0  0  0  0  0  0  0  0  0  0  0  0
    7.6213   -6.5618   16.0087 C   0  0  0  0  0  0  0  0  0  0  0  0
   10.8583   -2.6527   20.7222 C   0  0  0  0  0  0  0  0  0  0  0  0
   10.6412   -3.5089   21.7936 C   0  0  0  0  0  0  0  0  0  0  0  0
   10.4972   -3.8968   24.1589 C   0  0  0  0  0  0  0  0  0  0  0  0
    5.9260   -8.2736   16.5517 C   0  0  0  0  0  0  0  0  0  0  0  0
    3.8816   -9.1166   17.2493 C   0  0  0  0  0  0  0  0  0  0  0  0
   10.1297   -1.6575   23.2324 C   0  0  0  0  0  0  0  0  0  0  0  0
    9.4684   -1.6929   26.7263 F   0  0  0  0  0  0  0  0  0  0  0  0
    7.7963   -7.7906   17.9837 C   0  0  0  0  0  0  0  0  0  0  0  0
   10.5884   -3.0725   16.7902 O   0  0  0  0  0  0  0  0  0  0  0  0
   10.4323   -5.3494   20.3516 C   0  0  0  0  0  0  0  0  0  0  0  0
    7.1156   -7.5454   16.8218 C   0  0  0  0  0  0  0  0  0  0  0  0
   10.3885   -4.4388   19.2773 C   0  0  0  0  0  0  0  0  0  0  0  0
    4.5160   -9.3822   15.0841 C   0  0  0  0  0  0  0  0  0  0  0  0
  1  3  4  0
  1 24  4  0
  2  6  4  0
  2 15  4  0
  3  5  4  0
  3  6  4  0
  4 21  4  0
  4 29  4  0
  5 15  4  0
  5 28  1  0
  6 16  4  0
  7 18  4  0
  7 26  4  0
  8 18  1  0
  8 19  4  0
  8 22  4  0
  9 12  4  0
  9 19  4  0
 10 12  4  0
 10 22  4  0
 11 20  4  0
 11 21  4  0
 12 23  1  0
 13 20  4  0
 13 29  4  0
 14 17  4  0
 14 28  4  0
 15 25  2  0
 16 27  4  0
 17 18  4  0
 20 27  1  0
 24 27  4  0
 26 28  4  0
M  END
$$$$

 Created by Python create_sdf_string function

 29 33  0  0  0  0  0  0  0  0999 V2000
    8.8270   -7.0288   18.4251 C   0  0  0  0  0  0  0  0  0  0  0  0
    9.1576   -4.6236   15.8860 O   0  0  0  0  0  0  0  0  0  0  0  0
    9.1509   -5.9108   17.7177 C   0  0  0  0  0  0  0  0  0  0  0  0
    3.6373   -9.5349   16.0582 N   0  0  0  0  0  0  0  0  0  0  0  0
    9.9275   -4.8001   18.0438 N   0  0  0  0  0  0  0  0  0  0  0  0
    8.5908   -5.7425   16.4412 C   0  0  0  0  0  0  0  0  0  0  0  0
   10.5993   -4.8981   21.6068 C   0  0  0  0  0  0  0  0  0  0  0  0
   10.4258   -3.0106   23.0998 C   0  0  0  0  0  0  0  0  0  0  0  0
   10.2148   -3.4364   25.4200 C   0  0  0  0  0  0  0  0  0  0  0  0
    9.7853   -1.1840   24.4927 C   0  0  0  0  0  0  0  0  0  0  0  0
    5.0276   -8.5227   17.5352 C   0  0  0  0  0  0  0  0  0  0  0  0
    9.8187   -2.0895   25.5800 C   0  0  0  0  0  0  0  0  0  0  0  0
    5.6473   -8.7216   15.3158 C   0  0  0  0  0  0  0  0  0  0  0  0
   10.7581   -3.1233   19.4720 N   0  0  0  0  0  0  0  0  0  0  0  0
    9.9571   -4.0573   16.8866 C   0  0  0  0  0  0  0  0  0  0  0  0
    7.6213   -6.5618   16.0087 C   0  0  0  0  0  0  0  0  0  0  0  0
   10.8583   -2.6527   20.7222 C   0  0  0  0  0  0  0  0  0  0  0  0
   10.6412   -3.5089   21.7936 C   0  0  0  0  0  0  0  0  0  0  0  0
   10.4972   -3.8968   24.1589 C   0  0  0  0  0  0  0  0  0  0  0  0
    5.9260   -8.2736   16.5517 C   0  0  0  0  0  0  0  0  0  0  0  0
    3.8816   -9.1166   17.2493 C   0  0  0  0  0  0  0  0  0  0  0  0
   10.1297   -1.6575   23.2324 C   0  0  0  0  0  0  0  0  0  0  0  0
    9.4684   -1.6929   26.7263 F   0  0  0  0  0  0  0  0  0  0  0  0
    7.7963   -7.7906   17.9837 C   0  0  0  0  0  0  0  0  0  0  0  0
   10.5884   -3.0725   16.7902 O   0  0  0  0  0  0  0  0  0  0  0  0
   10.4323   -5.3494   20.3516 C   0  0  0  0  0  0  0  0  0  0  0  0
    7.1156   -7.5454   16.8218 C   0  0  0  0  0  0  0  0  0  0  0  0
   10.3885   -4.4388   19.2773 C   0  0  0  0  0  0  0  0  0  0  0  0
    4.5160   -9.3822   15.0841 C   0  0  0  0  0  0  0  0  0  0  0  0
  1  3  4  0
  1 24  4  0
  2  6  4  0
  2 15  4  0
  3  5  4  0
  3  6  4  0
  4 21  4  0
  4 29  4  0
  5 15  4  0
  5 28  1  0
  6 16  4  0
  7 18  4  0
  7 26  4  0
  8 18  1  0
  8 19  4  0
  8 22  4  0
  9 12  4  0
  9 19  4  0
 10 12  4  0
 10 22  4  0
 11 20  4  0
 11 21  4  0
 12 23  1  0
 13 20  4  0
 13 29  4  0
 14 17  4  0
 14 28  4  0
 15 25  2  0
 16 27  4  0
 17 18  4  0
 20 27  1  0
 24 27  4  0
 26 28  4  0
M  END
$$$$

 Created by Python create_sdf_string function

 29 33  0  0  0  0  0  0  0  0999 V2000
    8.8270   -7.0288   18.4251 C   0  0  0  0  0  0  0  0  0  0  0  0
    9.1576   -4.6236   15.8860 O   0  0  0  0  0  0  0  0  0  0  0  0
    9.1509   -5.9108   17.7177 C   0  0  0  0  0  0  0  0  0  0  0  0
    3.6373   -9.5349   16.0582 N   0  0  0  0  0  0  0  0  0  0  0  0
    9.9275   -4.8001   18.0438 N   0  0  0  0  0  0  0  0  0  0  0  0
    8.5908   -5.7425   16.4412 C   0  0  0  0  0  0  0  0  0  0  0  0
   10.5993   -4.8981   21.6068 C   0  0  0  0  0  0  0  0  0  0  0  0
   10.4258   -3.0106   23.0998 C   0  0  0  0  0  0  0  0  0  0  0  0
   10.2148   -3.4364   25.4200 C   0  0  0  0  0  0  0  0  0  0  0  0
    9.7853   -1.1840   24.4927 C   0  0  0  0  0  0  0  0  0  0  0  0
    5.0276   -8.5227   17.5352 C   0  0  0  0  0  0  0  0  0  0  0  0
    9.8187   -2.0895   25.5800 C   0  0  0  0  0  0  0  0  0  0  0  0
    5.6473   -8.7216   15.3158 C   0  0  0  0  0  0  0  0  0  0  0  0
   10.7581   -3.1233   19.4720 N   0  0  0  0  0  0  0  0  0  0  0  0
    9.9571   -4.0573   16.8866 C   0  0  0  0  0  0  0  0  0  0  0  0
    7.6213   -6.5618   16.0087 C   0  0  0  0  0  0  0  0  0  0  0  0
   10.8583   -2.6527   20.7222 C   0  0  0  0  0  0  0  0  0  0  0  0
   10.6412   -3.5089   21.7936 C   0  0  0  0  0  0  0  0  0  0  0  0
   10.4972   -3.8968   24.1589 C   0  0  0  0  0  0  0  0  0  0  0  0
    5.9260   -8.2736   16.5517 C   0  0  0  0  0  0  0  0  0  0  0  0
    3.8816   -9.1166   17.2493 C   0  0  0  0  0  0  0  0  0  0  0  0
   10.1297   -1.6575   23.2324 C   0  0  0  0  0  0  0  0  0  0  0  0
    9.4684   -1.6929   26.7263 F   0  0  0  0  0  0  0  0  0  0  0  0
    7.7963   -7.7906   17.9837 C   0  0  0  0  0  0  0  0  0  0  0  0
   10.5884   -3.0725   16.7902 O   0  0  0  0  0  0  0  0  0  0  0  0
   10.4323   -5.3494   20.3516 C   0  0  0  0  0  0  0  0  0  0  0  0
    7.1156   -7.5454   16.8218 C   0  0  0  0  0  0  0  0  0  0  0  0
   10.3885   -4.4388   19.2773 C   0  0  0  0  0  0  0  0  0  0  0  0
    4.5160   -9.3822   15.0841 C   0  0  0  0  0  0  0  0  0  0  0  0
  1  3  4  0
  1 24  4  0
  2  6  4  0
  2 15  4  0
  3  5  4  0
  3  6  4  0
  4 21  4  0
  4 29  4  0
  5 15  4  0
  5 28  1  0
  6 16  4  0
  7 18  4  0
  7 26  4  0
  8 18  1  0
  8 19  4  0
  8 22  4  0
  9 12  4  0
  9 19  4  0
 10 12  4  0
 10 22  4  0
 11 20  4  0
 11 21  4  0
 12 23  1  0
 13 20  4  0
 13 29  4  0
 14 17  4  0
 14 28  4  0
 15 25  2  0
 16 27  4  0
 17 18  4  0
 20 27  1  0
 24 27  4  0
 26 28  4  0
M  END
$$$$

 Created by Python create_sdf_string function

 29 33  0  0  0  0  0  0  0  0999 V2000
    8.8270   -7.0288   18.4251 C   0  0  0  0  0  0  0  0  0  0  0  0
    9.1576   -4.6236   15.8860 O   0  0  0  0  0  0  0  0  0  0  0  0
    9.1509   -5.9108   17.7177 C   0  0  0  0  0  0  0  0  0  0  0  0
    3.6373   -9.5349   16.0582 N   0  0  0  0  0  0  0  0  0  0  0  0
    9.9275   -4.8001   18.0438 N   0  0  0  0  0  0  0  0  0  0  0  0
    8.5908   -5.7425   16.4412 C   0  0  0  0  0  0  0  0  0  0  0  0
   10.5993   -4.8981   21.6068 C   0  0  0  0  0  0  0  0  0  0  0  0
   10.4258   -3.0106   23.0998 C   0  0  0  0  0  0  0  0  0  0  0  0
   10.2148   -3.4364   25.4200 C   0  0  0  0  0  0  0  0  0  0  0  0
    9.7853   -1.1840   24.4927 C   0  0  0  0  0  0  0  0  0  0  0  0
    5.0276   -8.5227   17.5352 C   0  0  0  0  0  0  0  0  0  0  0  0
    9.8187   -2.0895   25.5800 C   0  0  0  0  0  0  0  0  0  0  0  0
    5.6473   -8.7216   15.3158 C   0  0  0  0  0  0  0  0  0  0  0  0
   10.7581   -3.1233   19.4720 N   0  0  0  0  0  0  0  0  0  0  0  0
    9.9571   -4.0573   16.8866 C   0  0  0  0  0  0  0  0  0  0  0  0
    7.6213   -6.5618   16.0087 C   0  0  0  0  0  0  0  0  0  0  0  0
   10.8583   -2.6527   20.7222 C   0  0  0  0  0  0  0  0  0  0  0  0
   10.6412   -3.5089   21.7936 C   0  0  0  0  0  0  0  0  0  0  0  0
   10.4972   -3.8968   24.1589 C   0  0  0  0  0  0  0  0  0  0  0  0
    5.9260   -8.2736   16.5517 C   0  0  0  0  0  0  0  0  0  0  0  0
    3.8816   -9.1166   17.2493 C   0  0  0  0  0  0  0  0  0  0  0  0
   10.1297   -1.6575   23.2324 C   0  0  0  0  0  0  0  0  0  0  0  0
    9.4684   -1.6929   26.7263 F   0  0  0  0  0  0  0  0  0  0  0  0
    7.7963   -7.7906   17.9837 C   0  0  0  0  0  0  0  0  0  0  0  0
   10.5884   -3.0725   16.7902 O   0  0  0  0  0  0  0  0  0  0  0  0
   10.4323   -5.3494   20.3516 C   0  0  0  0  0  0  0  0  0  0  0  0
    7.1156   -7.5454   16.8218 C   0  0  0  0  0  0  0  0  0  0  0  0
   10.3885   -4.4388   19.2773 C   0  0  0  0  0  0  0  0  0  0  0  0
    4.5160   -9.3822   15.0841 C   0  0  0  0  0  0  0  0  0  0  0  0
  1  3  4  0
  1 24  4  0
  2  6  4  0
  2 15  4  0
  3  5  4  0
  3  6  4  0
  4 21  4  0
  4 29  4  0
  5 15  4  0
  5 28  1  0
  6 16  4  0
  7 18  4  0
  7 26  4  0
  8 18  1  0
  8 19  4  0
  8 22  4  0
  9 12  4  0
  9 19  4  0
 10 12  4  0
 10 22  4  0
 11 20  4  0
 11 21  4  0
 12 23  1  0
 13 20  4  0
 13 29  4  0
 14 17  4  0
 14 28  4  0
 15 25  2  0
 16 27  4  0
 17 18  4  0
 20 27  1  0
 24 27  4  0
 26 28  4  0
M  END
$$$$

 Created by Python create_sdf_string function

 29 33  0  0  0  0  0  0  0  0999 V2000
    8.8270   -7.0288   18.4251 C   0  0  0  0  0  0  0  0  0  0  0  0
    9.1576   -4.6236   15.8860 O   0  0  0  0  0  0  0  0  0  0  0  0
    9.1509   -5.9108   17.7177 C   0  0  0  0  0  0  0  0  0  0  0  0
    3.6373   -9.5349   16.0582 N   0  0  0  0  0  0  0  0  0  0  0  0
    9.9275   -4.8001   18.0438 N   0  0  0  0  0  0  0  0  0  0  0  0
    8.5908   -5.7425   16.4412 C   0  0  0  0  0  0  0  0  0  0  0  0
   10.5993   -4.8981   21.6068 C   0  0  0  0  0  0  0  0  0  0  0  0
   10.4258   -3.0106   23.0998 C   0  0  0  0  0  0  0  0  0  0  0  0
   10.2148   -3.4364   25.4200 C   0  0  0  0  0  0  0  0  0  0  0  0
    9.7853   -1.1840   24.4927 C   0  0  0  0  0  0  0  0  0  0  0  0
    5.0276   -8.5227   17.5352 C   0  0  0  0  0  0  0  0  0  0  0  0
    9.8187   -2.0895   25.5800 C   0  0  0  0  0  0  0  0  0  0  0  0
    5.6473   -8.7216   15.3158 C   0  0  0  0  0  0  0  0  0  0  0  0
   10.7581   -3.1233   19.4720 N   0  0  0  0  0  0  0  0  0  0  0  0
    9.9571   -4.0573   16.8866 C   0  0  0  0  0  0  0  0  0  0  0  0
    7.6213   -6.5618   16.0087 C   0  0  0  0  0  0  0  0  0  0  0  0
   10.8583   -2.6527   20.7222 C   0  0  0  0  0  0  0  0  0  0  0  0
   10.6412   -3.5089   21.7936 C   0  0  0  0  0  0  0  0  0  0  0  0
   10.4972   -3.8968   24.1589 C   0  0  0  0  0  0  0  0  0  0  0  0
    5.9260   -8.2736   16.5517 C   0  0  0  0  0  0  0  0  0  0  0  0
    3.8816   -9.1166   17.2493 C   0  0  0  0  0  0  0  0  0  0  0  0
   10.1297   -1.6575   23.2324 C   0  0  0  0  0  0  0  0  0  0  0  0
    9.4684   -1.6929   26.7263 F   0  0  0  0  0  0  0  0  0  0  0  0
    7.7963   -7.7906   17.9837 C   0  0  0  0  0  0  0  0  0  0  0  0
   10.5884   -3.0725   16.7902 O   0  0  0  0  0  0  0  0  0  0  0  0
   10.4323   -5.3494   20.3516 C   0  0  0  0  0  0  0  0  0  0  0  0
    7.1156   -7.5454   16.8218 C   0  0  0  0  0  0  0  0  0  0  0  0
   10.3885   -4.4388   19.2773 C   0  0  0  0  0  0  0  0  0  0  0  0
    4.5160   -9.3822   15.0841 C   0  0  0  0  0  0  0  0  0  0  0  0
  1  3  4  0
  1 24  4  0
  2  6  4  0
  2 15  4  0
  3  5  4  0
  3  6  4  0
  4 21  4  0
  4 29  4  0
  5 15  4  0
  5 28  1  0
  6 16  4  0
  7 18  4  0
  7 26  4  0
  8 18  1  0
  8 19  4  0
  8 22  4  0
  9 12  4  0
  9 19  4  0
 10 12  4  0
 10 22  4  0
 11 20  4  0
 11 21  4  0
 12 23  1  0
 13 20  4  0
 13 29  4  0
 14 17  4  0
 14 28  4  0
 15 25  2  0
 16 27  4  0
 17 18  4  0
 20 27  1  0
 24 27  4  0
 26 28  4  0
M  END
$$$$

 Created by Python create_sdf_string function

 29 33  0  0  0  0  0  0  0  0999 V2000
    8.8270   -7.0288   18.4251 C   0  0  0  0  0  0  0  0  0  0  0  0
    9.1576   -4.6236   15.8860 O   0  0  0  0  0  0  0  0  0  0  0  0
    9.1509   -5.9108   17.7177 C   0  0  0  0  0  0  0  0  0  0  0  0
    3.6373   -9.5349   16.0582 N   0  0  0  0  0  0  0  0  0  0  0  0
    9.9275   -4.8001   18.0438 N   0  0  0  0  0  0  0  0  0  0  0  0
    8.5908   -5.7425   16.4412 C   0  0  0  0  0  0  0  0  0  0  0  0
   10.5993   -4.8981   21.6068 C   0  0  0  0  0  0  0  0  0  0  0  0
   10.4258   -3.0106   23.0998 C   0  0  0  0  0  0  0  0  0  0  0  0
   10.2148   -3.4364   25.4200 C   0  0  0  0  0  0  0  0  0  0  0  0
    9.7853   -1.1840   24.4927 C   0  0  0  0  0  0  0  0  0  0  0  0
    5.0276   -8.5227   17.5352 C   0  0  0  0  0  0  0  0  0  0  0  0
    9.8187   -2.0895   25.5800 C   0  0  0  0  0  0  0  0  0  0  0  0
    5.6473   -8.7216   15.3158 C   0  0  0  0  0  0  0  0  0  0  0  0
   10.7581   -3.1233   19.4720 N   0  0  0  0  0  0  0  0  0  0  0  0
    9.9571   -4.0573   16.8866 C   0  0  0  0  0  0  0  0  0  0  0  0
    7.6213   -6.5618   16.0087 C   0  0  0  0  0  0  0  0  0  0  0  0
   10.8583   -2.6527   20.7222 C   0  0  0  0  0  0  0  0  0  0  0  0
   10.6412   -3.5089   21.7936 C   0  0  0  0  0  0  0  0  0  0  0  0
   10.4972   -3.8968   24.1589 C   0  0  0  0  0  0  0  0  0  0  0  0
    5.9260   -8.2736   16.5517 C   0  0  0  0  0  0  0  0  0  0  0  0
    3.8816   -9.1166   17.2493 C   0  0  0  0  0  0  0  0  0  0  0  0
   10.1297   -1.6575   23.2324 C   0  0  0  0  0  0  0  0  0  0  0  0
    9.4684   -1.6929   26.7263 F   0  0  0  0  0  0  0  0  0  0  0  0
    7.7963   -7.7906   17.9837 C   0  0  0  0  0  0  0  0  0  0  0  0
   10.5884   -3.0725   16.7902 O   0  0  0  0  0  0  0  0  0  0  0  0
   10.4323   -5.3494   20.3516 C   0  0  0  0  0  0  0  0  0  0  0  0
    7.1156   -7.5454   16.8218 C   0  0  0  0  0  0  0  0  0  0  0  0
   10.3885   -4.4388   19.2773 C   0  0  0  0  0  0  0  0  0  0  0  0
    4.5160   -9.3822   15.0841 C   0  0  0  0  0  0  0  0  0  0  0  0
  1  3  4  0
  1 24  4  0
  2  6  4  0
  2 15  4  0
  3  5  4  0
  3  6  4  0
  4 21  4  0
  4 29  4  0
  5 15  4  0
  5 28  1  0
  6 16  4  0
  7 18  4  0
  7 26  4  0
  8 18  1  0
  8 19  4  0
  8 22  4  0
  9 12  4  0
  9 19  4  0
 10 12  4  0
 10 22  4  0
 11 20  4  0
 11 21  4  0
 12 23  1  0
 13 20  4  0
 13 29  4  0
 14 17  4  0
 14 28  4  0
 15 25  2  0
 16 27  4  0
 17 18  4  0
 20 27  1  0
 24 27  4  0
 26 28  4  0
M  END
$$$$

 Created by Python create_sdf_string function

 29 33  0  0  0  0  0  0  0  0999 V2000
    8.8270   -7.0288   18.4251 C   0  0  0  0  0  0  0  0  0  0  0  0
    9.1576   -4.6236   15.8860 O   0  0  0  0  0  0  0  0  0  0  0  0
    9.1509   -5.9108   17.7177 C   0  0  0  0  0  0  0  0  0  0  0  0
    3.6373   -9.5349   16.0582 N   0  0  0  0  0  0  0  0  0  0  0  0
    9.9275   -4.8001   18.0438 N   0  0  0  0  0  0  0  0  0  0  0  0
    8.5908   -5.7425   16.4412 C   0  0  0  0  0  0  0  0  0  0  0  0
   10.5993   -4.8981   21.6068 C   0  0  0  0  0  0  0  0  0  0  0  0
   10.4258   -3.0106   23.0998 C   0  0  0  0  0  0  0  0  0  0  0  0
   10.2148   -3.4364   25.4200 C   0  0  0  0  0  0  0  0  0  0  0  0
    9.7853   -1.1840   24.4927 C   0  0  0  0  0  0  0  0  0  0  0  0
    5.0276   -8.5227   17.5352 C   0  0  0  0  0  0  0  0  0  0  0  0
    9.8187   -2.0895   25.5800 C   0  0  0  0  0  0  0  0  0  0  0  0
    5.6473   -8.7216   15.3158 C   0  0  0  0  0  0  0  0  0  0  0  0
   10.7581   -3.1233   19.4720 N   0  0  0  0  0  0  0  0  0  0  0  0
    9.9571   -4.0573   16.8866 C   0  0  0  0  0  0  0  0  0  0  0  0
    7.6213   -6.5618   16.0087 C   0  0  0  0  0  0  0  0  0  0  0  0
   10.8583   -2.6527   20.7222 C   0  0  0  0  0  0  0  0  0  0  0  0
   10.6412   -3.5089   21.7936 C   0  0  0  0  0  0  0  0  0  0  0  0
   10.4972   -3.8968   24.1589 C   0  0  0  0  0  0  0  0  0  0  0  0
    5.9260   -8.2736   16.5517 C   0  0  0  0  0  0  0  0  0  0  0  0
    3.8816   -9.1166   17.2493 C   0  0  0  0  0  0  0  0  0  0  0  0
   10.1297   -1.6575   23.2324 C   0  0  0  0  0  0  0  0  0  0  0  0
    9.4684   -1.6929   26.7263 F   0  0  0  0  0  0  0  0  0  0  0  0
    7.7963   -7.7906   17.9837 C   0  0  0  0  0  0  0  0  0  0  0  0
   10.5884   -3.0725   16.7902 O   0  0  0  0  0  0  0  0  0  0  0  0
   10.4323   -5.3494   20.3516 C   0  0  0  0  0  0  0  0  0  0  0  0
    7.1156   -7.5454   16.8218 C   0  0  0  0  0  0  0  0  0  0  0  0
   10.3885   -4.4388   19.2773 C   0  0  0  0  0  0  0  0  0  0  0  0
    4.5160   -9.3822   15.0841 C   0  0  0  0  0  0  0  0  0  0  0  0
  1  3  4  0
  1 24  4  0
  2  6  4  0
  2 15  4  0
  3  5  4  0
  3  6  4  0
  4 21  4  0
  4 29  4  0
  5 15  4  0
  5 28  1  0
  6 16  4  0
  7 18  4  0
  7 26  4  0
  8 18  1  0
  8 19  4  0
  8 22  4  0
  9 12  4  0
  9 19  4  0
 10 12  4  0
 10 22  4  0
 11 20  4  0
 11 21  4  0
 12 23  1  0
 13 20  4  0
 13 29  4  0
 14 17  4  0
 14 28  4  0
 15 25  2  0
 16 27  4  0
 17 18  4  0
 20 27  1  0
 24 27  4  0
 26 28  4  0
M  END
$$$$

 Created by Python create_sdf_string function

 29 33  0  0  0  0  0  0  0  0999 V2000
    8.8270   -7.0288   18.4251 C   0  0  0  0  0  0  0  0  0  0  0  0
    9.1576   -4.6236   15.8860 O   0  0  0  0  0  0  0  0  0  0  0  0
    9.1509   -5.9108   17.7177 C   0  0  0  0  0  0  0  0  0  0  0  0
    3.6373   -9.5349   16.0582 N   0  0  0  0  0  0  0  0  0  0  0  0
    9.9275   -4.8001   18.0438 N   0  0  0  0  0  0  0  0  0  0  0  0
    8.5908   -5.7425   16.4412 C   0  0  0  0  0  0  0  0  0  0  0  0
   10.5993   -4.8981   21.6068 C   0  0  0  0  0  0  0  0  0  0  0  0
   10.4258   -3.0106   23.0998 C   0  0  0  0  0  0  0  0  0  0  0  0
   10.2148   -3.4364   25.4200 C   0  0  0  0  0  0  0  0  0  0  0  0
    9.7853   -1.1840   24.4927 C   0  0  0  0  0  0  0  0  0  0  0  0
    5.0276   -8.5227   17.5352 C   0  0  0  0  0  0  0  0  0  0  0  0
    9.8187   -2.0895   25.5800 C   0  0  0  0  0  0  0  0  0  0  0  0
    5.6473   -8.7216   15.3158 C   0  0  0  0  0  0  0  0  0  0  0  0
   10.7581   -3.1233   19.4720 N   0  0  0  0  0  0  0  0  0  0  0  0
    9.9571   -4.0573   16.8866 C   0  0  0  0  0  0  0  0  0  0  0  0
    7.6213   -6.5618   16.0087 C   0  0  0  0  0  0  0  0  0  0  0  0
   10.8583   -2.6527   20.7222 C   0  0  0  0  0  0  0  0  0  0  0  0
   10.6412   -3.5089   21.7936 C   0  0  0  0  0  0  0  0  0  0  0  0
   10.4972   -3.8968   24.1589 C   0  0  0  0  0  0  0  0  0  0  0  0
    5.9260   -8.2736   16.5517 C   0  0  0  0  0  0  0  0  0  0  0  0
    3.8816   -9.1166   17.2493 C   0  0  0  0  0  0  0  0  0  0  0  0
   10.1297   -1.6575   23.2324 C   0  0  0  0  0  0  0  0  0  0  0  0
    9.4684   -1.6929   26.7263 F   0  0  0  0  0  0  0  0  0  0  0  0
    7.7963   -7.7906   17.9837 C   0  0  0  0  0  0  0  0  0  0  0  0
   10.5884   -3.0725   16.7902 O   0  0  0  0  0  0  0  0  0  0  0  0
   10.4323   -5.3494   20.3516 C   0  0  0  0  0  0  0  0  0  0  0  0
    7.1156   -7.5454   16.8218 C   0  0  0  0  0  0  0  0  0  0  0  0
   10.3885   -4.4388   19.2773 C   0  0  0  0  0  0  0  0  0  0  0  0
    4.5160   -9.3822   15.0841 C   0  0  0  0  0  0  0  0  0  0  0  0
  1  3  4  0
  1 24  4  0
  2  6  4  0
  2 15  4  0
  3  5  4  0
  3  6  4  0
  4 21  4  0
  4 29  4  0
  5 15  4  0
  5 28  1  0
  6 16  4  0
  7 18  4  0
  7 26  4  0
  8 18  1  0
  8 19  4  0
  8 22  4  0
  9 12  4  0
  9 19  4  0
 10 12  4  0
 10 22  4  0
 11 20  4  0
 11 21  4  0
 12 23  1  0
 13 20  4  0
 13 29  4  0
 14 17  4  0
 14 28  4  0
 15 25  2  0
 16 27  4  0
 17 18  4  0
 20 27  1  0
 24 27  4  0
 26 28  4  0
M  END
$$$$

 Created by Python create_sdf_string function

 29 33  0  0  0  0  0  0  0  0999 V2000
    8.8270   -7.0288   18.4251 C   0  0  0  0  0  0  0  0  0  0  0  0
    9.1576   -4.6236   15.8860 O   0  0  0  0  0  0  0  0  0  0  0  0
    9.1509   -5.9108   17.7177 C   0  0  0  0  0  0  0  0  0  0  0  0
    3.6373   -9.5349   16.0582 N   0  0  0  0  0  0  0  0  0  0  0  0
    9.9275   -4.8001   18.0438 N   0  0  0  0  0  0  0  0  0  0  0  0
    8.5908   -5.7425   16.4412 C   0  0  0  0  0  0  0  0  0  0  0  0
   10.5993   -4.8981   21.6068 C   0  0  0  0  0  0  0  0  0  0  0  0
   10.4258   -3.0106   23.0998 C   0  0  0  0  0  0  0  0  0  0  0  0
   10.2148   -3.4364   25.4200 C   0  0  0  0  0  0  0  0  0  0  0  0
    9.7853   -1.1840   24.4927 C   0  0  0  0  0  0  0  0  0  0  0  0
    5.0276   -8.5227   17.5352 C   0  0  0  0  0  0  0  0  0  0  0  0
    9.8187   -2.0895   25.5800 C   0  0  0  0  0  0  0  0  0  0  0  0
    5.6473   -8.7216   15.3158 C   0  0  0  0  0  0  0  0  0  0  0  0
   10.7581   -3.1233   19.4720 N   0  0  0  0  0  0  0  0  0  0  0  0
    9.9571   -4.0573   16.8866 C   0  0  0  0  0  0  0  0  0  0  0  0
    7.6213   -6.5618   16.0087 C   0  0  0  0  0  0  0  0  0  0  0  0
   10.8583   -2.6527   20.7222 C   0  0  0  0  0  0  0  0  0  0  0  0
   10.6412   -3.5089   21.7936 C   0  0  0  0  0  0  0  0  0  0  0  0
   10.4972   -3.8968   24.1589 C   0  0  0  0  0  0  0  0  0  0  0  0
    5.9260   -8.2736   16.5517 C   0  0  0  0  0  0  0  0  0  0  0  0
    3.8816   -9.1166   17.2493 C   0  0  0  0  0  0  0  0  0  0  0  0
   10.1297   -1.6575   23.2324 C   0  0  0  0  0  0  0  0  0  0  0  0
    9.4684   -1.6929   26.7263 F   0  0  0  0  0  0  0  0  0  0  0  0
    7.7963   -7.7906   17.9837 C   0  0  0  0  0  0  0  0  0  0  0  0
   10.5884   -3.0725   16.7902 O   0  0  0  0  0  0  0  0  0  0  0  0
   10.4323   -5.3494   20.3516 C   0  0  0  0  0  0  0  0  0  0  0  0
    7.1156   -7.5454   16.8218 C   0  0  0  0  0  0  0  0  0  0  0  0
   10.3885   -4.4388   19.2773 C   0  0  0  0  0  0  0  0  0  0  0  0
    4.5160   -9.3822   15.0841 C   0  0  0  0  0  0  0  0  0  0  0  0
  1  3  4  0
  1 24  4  0
  2  6  4  0
  2 15  4  0
  3  5  4  0
  3  6  4  0
  4 21  4  0
  4 29  4  0
  5 15  4  0
  5 28  1  0
  6 16  4  0
  7 18  4  0
  7 26  4  0
  8 18  1  0
  8 19  4  0
  8 22  4  0
  9 12  4  0
  9 19  4  0
 10 12  4  0
 10 22  4  0
 11 20  4  0
 11 21  4  0
 12 23  1  0
 13 20  4  0
 13 29  4  0
 14 17  4  0
 14 28  4  0
 15 25  2  0
 16 27  4  0
 17 18  4  0
 20 27  1  0
 24 27  4  0
 26 28  4  0
M  END
$$$$

 Created by Python create_sdf_string function

 29 33  0  0  0  0  0  0  0  0999 V2000
    8.8270   -7.0288   18.4251 C   0  0  0  0  0  0  0  0  0  0  0  0
    9.1576   -4.6236   15.8860 O   0  0  0  0  0  0  0  0  0  0  0  0
    9.1509   -5.9108   17.7177 C   0  0  0  0  0  0  0  0  0  0  0  0
    3.6373   -9.5349   16.0582 N   0  0  0  0  0  0  0  0  0  0  0  0
    9.9275   -4.8001   18.0438 N   0  0  0  0  0  0  0  0  0  0  0  0
    8.5908   -5.7425   16.4412 C   0  0  0  0  0  0  0  0  0  0  0  0
   10.5993   -4.8981   21.6068 C   0  0  0  0  0  0  0  0  0  0  0  0
   10.4258   -3.0106   23.0998 C   0  0  0  0  0  0  0  0  0  0  0  0
   10.2148   -3.4364   25.4200 C   0  0  0  0  0  0  0  0  0  0  0  0
    9.7853   -1.1840   24.4927 C   0  0  0  0  0  0  0  0  0  0  0  0
    5.0276   -8.5227   17.5352 C   0  0  0  0  0  0  0  0  0  0  0  0
    9.8187   -2.0895   25.5800 C   0  0  0  0  0  0  0  0  0  0  0  0
    5.6473   -8.7216   15.3158 C   0  0  0  0  0  0  0  0  0  0  0  0
   10.7581   -3.1233   19.4720 N   0  0  0  0  0  0  0  0  0  0  0  0
    9.9571   -4.0573   16.8866 C   0  0  0  0  0  0  0  0  0  0  0  0
    7.6213   -6.5618   16.0087 C   0  0  0  0  0  0  0  0  0  0  0  0
   10.8583   -2.6527   20.7222 C   0  0  0  0  0  0  0  0  0  0  0  0
   10.6412   -3.5089   21.7936 C   0  0  0  0  0  0  0  0  0  0  0  0
   10.4972   -3.8968   24.1589 C   0  0  0  0  0  0  0  0  0  0  0  0
    5.9260   -8.2736   16.5517 C   0  0  0  0  0  0  0  0  0  0  0  0
    3.8816   -9.1166   17.2493 C   0  0  0  0  0  0  0  0  0  0  0  0
   10.1297   -1.6575   23.2324 C   0  0  0  0  0  0  0  0  0  0  0  0
    9.4684   -1.6929   26.7263 F   0  0  0  0  0  0  0  0  0  0  0  0
    7.7963   -7.7906   17.9837 C   0  0  0  0  0  0  0  0  0  0  0  0
   10.5884   -3.0725   16.7902 O   0  0  0  0  0  0  0  0  0  0  0  0
   10.4323   -5.3494   20.3516 C   0  0  0  0  0  0  0  0  0  0  0  0
    7.1156   -7.5454   16.8218 C   0  0  0  0  0  0  0  0  0  0  0  0
   10.3885   -4.4388   19.2773 C   0  0  0  0  0  0  0  0  0  0  0  0
    4.5160   -9.3822   15.0841 C   0  0  0  0  0  0  0  0  0  0  0  0
  1  3  4  0
  1 24  4  0
  2  6  4  0
  2 15  4  0
  3  5  4  0
  3  6  4  0
  4 21  4  0
  4 29  4  0
  5 15  4  0
  5 28  1  0
  6 16  4  0
  7 18  4  0
  7 26  4  0
  8 18  1  0
  8 19  4  0
  8 22  4  0
  9 12  4  0
  9 19  4  0
 10 12  4  0
 10 22  4  0
 11 20  4  0
 11 21  4  0
 12 23  1  0
 13 20  4  0
 13 29  4  0
 14 17  4  0
 14 28  4  0
 15 25  2  0
 16 27  4  0
 17 18  4  0
 20 27  1  0
 24 27  4  0
 26 28  4  0
M  END
$$$$

 Created by Python create_sdf_string function

 29 33  0  0  0  0  0  0  0  0999 V2000
    8.8270   -7.0288   18.4251 C   0  0  0  0  0  0  0  0  0  0  0  0
    9.1576   -4.6236   15.8860 O   0  0  0  0  0  0  0  0  0  0  0  0
    9.1509   -5.9108   17.7177 C   0  0  0  0  0  0  0  0  0  0  0  0
    3.6373   -9.5349   16.0582 N   0  0  0  0  0  0  0  0  0  0  0  0
    9.9275   -4.8001   18.0438 N   0  0  0  0  0  0  0  0  0  0  0  0
    8.5908   -5.7425   16.4412 C   0  0  0  0  0  0  0  0  0  0  0  0
   10.5993   -4.8981   21.6068 C   0  0  0  0  0  0  0  0  0  0  0  0
   10.4258   -3.0106   23.0998 C   0  0  0  0  0  0  0  0  0  0  0  0
   10.2148   -3.4364   25.4200 C   0  0  0  0  0  0  0  0  0  0  0  0
    9.7853   -1.1840   24.4927 C   0  0  0  0  0  0  0  0  0  0  0  0
    5.0276   -8.5227   17.5352 C   0  0  0  0  0  0  0  0  0  0  0  0
    9.8187   -2.0895   25.5800 C   0  0  0  0  0  0  0  0  0  0  0  0
    5.6473   -8.7216   15.3158 C   0  0  0  0  0  0  0  0  0  0  0  0
   10.7581   -3.1233   19.4720 N   0  0  0  0  0  0  0  0  0  0  0  0
    9.9571   -4.0573   16.8866 C   0  0  0  0  0  0  0  0  0  0  0  0
    7.6213   -6.5618   16.0087 C   0  0  0  0  0  0  0  0  0  0  0  0
   10.8583   -2.6527   20.7222 C   0  0  0  0  0  0  0  0  0  0  0  0
   10.6412   -3.5089   21.7936 C   0  0  0  0  0  0  0  0  0  0  0  0
   10.4972   -3.8968   24.1589 C   0  0  0  0  0  0  0  0  0  0  0  0
    5.9260   -8.2736   16.5517 C   0  0  0  0  0  0  0  0  0  0  0  0
    3.8816   -9.1166   17.2493 C   0  0  0  0  0  0  0  0  0  0  0  0
   10.1297   -1.6575   23.2324 C   0  0  0  0  0  0  0  0  0  0  0  0
    9.4684   -1.6929   26.7263 F   0  0  0  0  0  0  0  0  0  0  0  0
    7.7963   -7.7906   17.9837 C   0  0  0  0  0  0  0  0  0  0  0  0
   10.5884   -3.0725   16.7902 O   0  0  0  0  0  0  0  0  0  0  0  0
   10.4323   -5.3494   20.3516 C   0  0  0  0  0  0  0  0  0  0  0  0
    7.1156   -7.5454   16.8218 C   0  0  0  0  0  0  0  0  0  0  0  0
   10.3885   -4.4388   19.2773 C   0  0  0  0  0  0  0  0  0  0  0  0
    4.5160   -9.3822   15.0841 C   0  0  0  0  0  0  0  0  0  0  0  0
  1  3  4  0
  1 24  4  0
  2  6  4  0
  2 15  4  0
  3  5  4  0
  3  6  4  0
  4 21  4  0
  4 29  4  0
  5 15  4  0
  5 28  1  0
  6 16  4  0
  7 18  4  0
  7 26  4  0
  8 18  1  0
  8 19  4  0
  8 22  4  0
  9 12  4  0
  9 19  4  0
 10 12  4  0
 10 22  4  0
 11 20  4  0
 11 21  4  0
 12 23  1  0
 13 20  4  0
 13 29  4  0
 14 17  4  0
 14 28  4  0
 15 25  2  0
 16 27  4  0
 17 18  4  0
 20 27  1  0
 24 27  4  0
 26 28  4  0
M  END
$$$$

 Created by Python create_sdf_string function

 29 33  0  0  0  0  0  0  0  0999 V2000
    8.8270   -7.0288   18.4251 C   0  0  0  0  0  0  0  0  0  0  0  0
    9.1576   -4.6236   15.8860 O   0  0  0  0  0  0  0  0  0  0  0  0
    9.1509   -5.9108   17.7177 C   0  0  0  0  0  0  0  0  0  0  0  0
    3.6373   -9.5349   16.0582 N   0  0  0  0  0  0  0  0  0  0  0  0
    9.9275   -4.8001   18.0438 N   0  0  0  0  0  0  0  0  0  0  0  0
    8.5908   -5.7425   16.4412 C   0  0  0  0  0  0  0  0  0  0  0  0
   10.5993   -4.8981   21.6068 C   0  0  0  0  0  0  0  0  0  0  0  0
   10.4258   -3.0106   23.0998 C   0  0  0  0  0  0  0  0  0  0  0  0
   10.2148   -3.4364   25.4200 C   0  0  0  0  0  0  0  0  0  0  0  0
    9.7853   -1.1840   24.4927 C   0  0  0  0  0  0  0  0  0  0  0  0
    5.0276   -8.5227   17.5352 C   0  0  0  0  0  0  0  0  0  0  0  0
    9.8187   -2.0895   25.5800 C   0  0  0  0  0  0  0  0  0  0  0  0
    5.6473   -8.7216   15.3158 C   0  0  0  0  0  0  0  0  0  0  0  0
   10.7581   -3.1233   19.4720 N   0  0  0  0  0  0  0  0  0  0  0  0
    9.9571   -4.0573   16.8866 C   0  0  0  0  0  0  0  0  0  0  0  0
    7.6213   -6.5618   16.0087 C   0  0  0  0  0  0  0  0  0  0  0  0
   10.8583   -2.6527   20.7222 C   0  0  0  0  0  0  0  0  0  0  0  0
   10.6412   -3.5089   21.7936 C   0  0  0  0  0  0  0  0  0  0  0  0
   10.4972   -3.8968   24.1589 C   0  0  0  0  0  0  0  0  0  0  0  0
    5.9260   -8.2736   16.5517 C   0  0  0  0  0  0  0  0  0  0  0  0
    3.8816   -9.1166   17.2493 C   0  0  0  0  0  0  0  0  0  0  0  0
   10.1297   -1.6575   23.2324 C   0  0  0  0  0  0  0  0  0  0  0  0
    9.4684   -1.6929   26.7263 F   0  0  0  0  0  0  0  0  0  0  0  0
    7.7963   -7.7906   17.9837 C   0  0  0  0  0  0  0  0  0  0  0  0
   10.5884   -3.0725   16.7902 O   0  0  0  0  0  0  0  0  0  0  0  0
   10.4323   -5.3494   20.3516 C   0  0  0  0  0  0  0  0  0  0  0  0
    7.1156   -7.5454   16.8218 C   0  0  0  0  0  0  0  0  0  0  0  0
   10.3885   -4.4388   19.2773 C   0  0  0  0  0  0  0  0  0  0  0  0
    4.5160   -9.3822   15.0841 C   0  0  0  0  0  0  0  0  0  0  0  0
  1  3  4  0
  1 24  4  0
  2  6  4  0
  2 15  4  0
  3  5  4  0
  3  6  4  0
  4 21  4  0
  4 29  4  0
  5 15  4  0
  5 28  1  0
  6 16  4  0
  7 18  4  0
  7 26  4  0
  8 18  1  0
  8 19  4  0
  8 22  4  0
  9 12  4  0
  9 19  4  0
 10 12  4  0
 10 22  4  0
 11 20  4  0
 11 21  4  0
 12 23  1  0
 13 20  4  0
 13 29  4  0
 14 17  4  0
 14 28  4  0
 15 25  2  0
 16 27  4  0
 17 18  4  0
 20 27  1  0
 24 27  4  0
 26 28  4  0
M  END
$$$$

 Created by Python create_sdf_string function

 29 33  0  0  0  0  0  0  0  0999 V2000
    8.8270   -7.0288   18.4251 C   0  0  0  0  0  0  0  0  0  0  0  0
    9.1576   -4.6236   15.8860 O   0  0  0  0  0  0  0  0  0  0  0  0
    9.1509   -5.9108   17.7177 C   0  0  0  0  0  0  0  0  0  0  0  0
    3.6373   -9.5349   16.0582 N   0  0  0  0  0  0  0  0  0  0  0  0
    9.9275   -4.8001   18.0438 N   0  0  0  0  0  0  0  0  0  0  0  0
    8.5908   -5.7425   16.4412 C   0  0  0  0  0  0  0  0  0  0  0  0
   10.5993   -4.8981   21.6068 C   0  0  0  0  0  0  0  0  0  0  0  0
   10.4258   -3.0106   23.0998 C   0  0  0  0  0  0  0  0  0  0  0  0
   10.2148   -3.4364   25.4200 C   0  0  0  0  0  0  0  0  0  0  0  0
    9.7853   -1.1840   24.4927 C   0  0  0  0  0  0  0  0  0  0  0  0
    5.0276   -8.5227   17.5352 C   0  0  0  0  0  0  0  0  0  0  0  0
    9.8187   -2.0895   25.5800 C   0  0  0  0  0  0  0  0  0  0  0  0
    5.6473   -8.7216   15.3158 C   0  0  0  0  0  0  0  0  0  0  0  0
   10.7581   -3.1233   19.4720 N   0  0  0  0  0  0  0  0  0  0  0  0
    9.9571   -4.0573   16.8866 C   0  0  0  0  0  0  0  0  0  0  0  0
    7.6213   -6.5618   16.0087 C   0  0  0  0  0  0  0  0  0  0  0  0
   10.8583   -2.6527   20.7222 C   0  0  0  0  0  0  0  0  0  0  0  0
   10.6412   -3.5089   21.7936 C   0  0  0  0  0  0  0  0  0  0  0  0
   10.4972   -3.8968   24.1589 C   0  0  0  0  0  0  0  0  0  0  0  0
    5.9260   -8.2736   16.5517 C   0  0  0  0  0  0  0  0  0  0  0  0
    3.8816   -9.1166   17.2493 C   0  0  0  0  0  0  0  0  0  0  0  0
   10.1297   -1.6575   23.2324 C   0  0  0  0  0  0  0  0  0  0  0  0
    9.4684   -1.6929   26.7263 F   0  0  0  0  0  0  0  0  0  0  0  0
    7.7963   -7.7906   17.9837 C   0  0  0  0  0  0  0  0  0  0  0  0
   10.5884   -3.0725   16.7902 O   0  0  0  0  0  0  0  0  0  0  0  0
   10.4323   -5.3494   20.3516 C   0  0  0  0  0  0  0  0  0  0  0  0
    7.1156   -7.5454   16.8218 C   0  0  0  0  0  0  0  0  0  0  0  0
   10.3885   -4.4388   19.2773 C   0  0  0  0  0  0  0  0  0  0  0  0
    4.5160   -9.3822   15.0841 C   0  0  0  0  0  0  0  0  0  0  0  0
  1  3  4  0
  1 24  4  0
  2  6  4  0
  2 15  4  0
  3  5  4  0
  3  6  4  0
  4 21  4  0
  4 29  4  0
  5 15  4  0
  5 28  1  0
  6 16  4  0
  7 18  4  0
  7 26  4  0
  8 18  1  0
  8 19  4  0
  8 22  4  0
  9 12  4  0
  9 19  4  0
 10 12  4  0
 10 22  4  0
 11 20  4  0
 11 21  4  0
 12 23  1  0
 13 20  4  0
 13 29  4  0
 14 17  4  0
 14 28  4  0
 15 25  2  0
 16 27  4  0
 17 18  4  0
 20 27  1  0
 24 27  4  0
 26 28  4  0
M  END
$$$$

 Created by Python create_sdf_string function

 29 33  0  0  0  0  0  0  0  0999 V2000
    8.8270   -7.0288   18.4251 C   0  0  0  0  0  0  0  0  0  0  0  0
    9.1576   -4.6236   15.8860 O   0  0  0  0  0  0  0  0  0  0  0  0
    9.1509   -5.9108   17.7177 C   0  0  0  0  0  0  0  0  0  0  0  0
    3.6373   -9.5349   16.0582 N   0  0  0  0  0  0  0  0  0  0  0  0
    9.9275   -4.8001   18.0438 N   0  0  0  0  0  0  0  0  0  0  0  0
    8.5908   -5.7425   16.4412 C   0  0  0  0  0  0  0  0  0  0  0  0
   10.5993   -4.8981   21.6068 C   0  0  0  0  0  0  0  0  0  0  0  0
   10.4258   -3.0106   23.0998 C   0  0  0  0  0  0  0  0  0  0  0  0
   10.2148   -3.4364   25.4200 C   0  0  0  0  0  0  0  0  0  0  0  0
    9.7853   -1.1840   24.4927 C   0  0  0  0  0  0  0  0  0  0  0  0
    5.0276   -8.5227   17.5352 C   0  0  0  0  0  0  0  0  0  0  0  0
    9.8187   -2.0895   25.5800 C   0  0  0  0  0  0  0  0  0  0  0  0
    5.6473   -8.7216   15.3158 C   0  0  0  0  0  0  0  0  0  0  0  0
   10.7581   -3.1233   19.4720 N   0  0  0  0  0  0  0  0  0  0  0  0
    9.9571   -4.0573   16.8866 C   0  0  0  0  0  0  0  0  0  0  0  0
    7.6213   -6.5618   16.0087 C   0  0  0  0  0  0  0  0  0  0  0  0
   10.8583   -2.6527   20.7222 C   0  0  0  0  0  0  0  0  0  0  0  0
   10.6412   -3.5089   21.7936 C   0  0  0  0  0  0  0  0  0  0  0  0
   10.4972   -3.8968   24.1589 C   0  0  0  0  0  0  0  0  0  0  0  0
    5.9260   -8.2736   16.5517 C   0  0  0  0  0  0  0  0  0  0  0  0
    3.8816   -9.1166   17.2493 C   0  0  0  0  0  0  0  0  0  0  0  0
   10.1297   -1.6575   23.2324 C   0  0  0  0  0  0  0  0  0  0  0  0
    9.4684   -1.6929   26.7263 F   0  0  0  0  0  0  0  0  0  0  0  0
    7.7963   -7.7906   17.9837 C   0  0  0  0  0  0  0  0  0  0  0  0
   10.5884   -3.0725   16.7902 O   0  0  0  0  0  0  0  0  0  0  0  0
   10.4323   -5.3494   20.3516 C   0  0  0  0  0  0  0  0  0  0  0  0
    7.1156   -7.5454   16.8218 C   0  0  0  0  0  0  0  0  0  0  0  0
   10.3885   -4.4388   19.2773 C   0  0  0  0  0  0  0  0  0  0  0  0
    4.5160   -9.3822   15.0841 C   0  0  0  0  0  0  0  0  0  0  0  0
  1  3  4  0
  1 24  4  0
  2  6  4  0
  2 15  4  0
  3  5  4  0
  3  6  4  0
  4 21  4  0
  4 29  4  0
  5 15  4  0
  5 28  1  0
  6 16  4  0
  7 18  4  0
  7 26  4  0
  8 18  1  0
  8 19  4  0
  8 22  4  0
  9 12  4  0
  9 19  4  0
 10 12  4  0
 10 22  4  0
 11 20  4  0
 11 21  4  0
 12 23  1  0
 13 20  4  0
 13 29  4  0
 14 17  4  0
 14 28  4  0
 15 25  2  0
 16 27  4  0
 17 18  4  0
 20 27  1  0
 24 27  4  0
 26 28  4  0
M  END
$$$$

 Created by Python create_sdf_string function

 29 33  0  0  0  0  0  0  0  0999 V2000
    8.8270   -7.0288   18.4251 C   0  0  0  0  0  0  0  0  0  0  0  0
    9.1576   -4.6236   15.8860 O   0  0  0  0  0  0  0  0  0  0  0  0
    9.1509   -5.9108   17.7177 C   0  0  0  0  0  0  0  0  0  0  0  0
    3.6373   -9.5349   16.0582 N   0  0  0  0  0  0  0  0  0  0  0  0
    9.9275   -4.8001   18.0438 N   0  0  0  0  0  0  0  0  0  0  0  0
    8.5908   -5.7425   16.4412 C   0  0  0  0  0  0  0  0  0  0  0  0
   10.5993   -4.8981   21.6068 C   0  0  0  0  0  0  0  0  0  0  0  0
   10.4258   -3.0106   23.0998 C   0  0  0  0  0  0  0  0  0  0  0  0
   10.2148   -3.4364   25.4200 C   0  0  0  0  0  0  0  0  0  0  0  0
    9.7853   -1.1840   24.4927 C   0  0  0  0  0  0  0  0  0  0  0  0
    5.0276   -8.5227   17.5352 C   0  0  0  0  0  0  0  0  0  0  0  0
    9.8187   -2.0895   25.5800 C   0  0  0  0  0  0  0  0  0  0  0  0
    5.6473   -8.7216   15.3158 C   0  0  0  0  0  0  0  0  0  0  0  0
   10.7581   -3.1233   19.4720 N   0  0  0  0  0  0  0  0  0  0  0  0
    9.9571   -4.0573   16.8866 C   0  0  0  0  0  0  0  0  0  0  0  0
    7.6213   -6.5618   16.0087 C   0  0  0  0  0  0  0  0  0  0  0  0
   10.8583   -2.6527   20.7222 C   0  0  0  0  0  0  0  0  0  0  0  0
   10.6412   -3.5089   21.7936 C   0  0  0  0  0  0  0  0  0  0  0  0
   10.4972   -3.8968   24.1589 C   0  0  0  0  0  0  0  0  0  0  0  0
    5.9260   -8.2736   16.5517 C   0  0  0  0  0  0  0  0  0  0  0  0
    3.8816   -9.1166   17.2493 C   0  0  0  0  0  0  0  0  0  0  0  0
   10.1297   -1.6575   23.2324 C   0  0  0  0  0  0  0  0  0  0  0  0
    9.4684   -1.6929   26.7263 F   0  0  0  0  0  0  0  0  0  0  0  0
    7.7963   -7.7906   17.9837 C   0  0  0  0  0  0  0  0  0  0  0  0
   10.5884   -3.0725   16.7902 O   0  0  0  0  0  0  0  0  0  0  0  0
   10.4323   -5.3494   20.3516 C   0  0  0  0  0  0  0  0  0  0  0  0
    7.1156   -7.5454   16.8218 C   0  0  0  0  0  0  0  0  0  0  0  0
   10.3885   -4.4388   19.2773 C   0  0  0  0  0  0  0  0  0  0  0  0
    4.5160   -9.3822   15.0841 C   0  0  0  0  0  0  0  0  0  0  0  0
  1  3  4  0
  1 24  4  0
  2  6  4  0
  2 15  4  0
  3  5  4  0
  3  6  4  0
  4 21  4  0
  4 29  4  0
  5 15  4  0
  5 28  1  0
  6 16  4  0
  7 18  4  0
  7 26  4  0
  8 18  1  0
  8 19  4  0
  8 22  4  0
  9 12  4  0
  9 19  4  0
 10 12  4  0
 10 22  4  0
 11 20  4  0
 11 21  4  0
 12 23  1  0
 13 20  4  0
 13 29  4  0
 14 17  4  0
 14 28  4  0
 15 25  2  0
 16 27  4  0
 17 18  4  0
 20 27  1  0
 24 27  4  0
 26 28  4  0
M  END
$$$$

 Created by Python create_sdf_string function

 29 33  0  0  0  0  0  0  0  0999 V2000
    8.8270   -7.0288   18.4251 C   0  0  0  0  0  0  0  0  0  0  0  0
    9.1576   -4.6236   15.8860 O   0  0  0  0  0  0  0  0  0  0  0  0
    9.1509   -5.9108   17.7177 C   0  0  0  0  0  0  0  0  0  0  0  0
    3.6373   -9.5349   16.0582 N   0  0  0  0  0  0  0  0  0  0  0  0
    9.9275   -4.8001   18.0438 N   0  0  0  0  0  0  0  0  0  0  0  0
    8.5908   -5.7425   16.4412 C   0  0  0  0  0  0  0  0  0  0  0  0
   10.5993   -4.8981   21.6068 C   0  0  0  0  0  0  0  0  0  0  0  0
   10.4258   -3.0106   23.0998 C   0  0  0  0  0  0  0  0  0  0  0  0
   10.2148   -3.4364   25.4200 C   0  0  0  0  0  0  0  0  0  0  0  0
    9.7853   -1.1840   24.4927 C   0  0  0  0  0  0  0  0  0  0  0  0
    5.0276   -8.5227   17.5352 C   0  0  0  0  0  0  0  0  0  0  0  0
    9.8187   -2.0895   25.5800 C   0  0  0  0  0  0  0  0  0  0  0  0
    5.6473   -8.7216   15.3158 C   0  0  0  0  0  0  0  0  0  0  0  0
   10.7581   -3.1233   19.4720 N   0  0  0  0  0  0  0  0  0  0  0  0
    9.9571   -4.0573   16.8866 C   0  0  0  0  0  0  0  0  0  0  0  0
    7.6213   -6.5618   16.0087 C   0  0  0  0  0  0  0  0  0  0  0  0
   10.8583   -2.6527   20.7222 C   0  0  0  0  0  0  0  0  0  0  0  0
   10.6412   -3.5089   21.7936 C   0  0  0  0  0  0  0  0  0  0  0  0
   10.4972   -3.8968   24.1589 C   0  0  0  0  0  0  0  0  0  0  0  0
    5.9260   -8.2736   16.5517 C   0  0  0  0  0  0  0  0  0  0  0  0
    3.8816   -9.1166   17.2493 C   0  0  0  0  0  0  0  0  0  0  0  0
   10.1297   -1.6575   23.2324 C   0  0  0  0  0  0  0  0  0  0  0  0
    9.4684   -1.6929   26.7263 F   0  0  0  0  0  0  0  0  0  0  0  0
    7.7963   -7.7906   17.9837 C   0  0  0  0  0  0  0  0  0  0  0  0
   10.5884   -3.0725   16.7902 O   0  0  0  0  0  0  0  0  0  0  0  0
   10.4323   -5.3494   20.3516 C   0  0  0  0  0  0  0  0  0  0  0  0
    7.1156   -7.5454   16.8218 C   0  0  0  0  0  0  0  0  0  0  0  0
   10.3885   -4.4388   19.2773 C   0  0  0  0  0  0  0  0  0  0  0  0
    4.5160   -9.3822   15.0841 C   0  0  0  0  0  0  0  0  0  0  0  0
  1  3  4  0
  1 24  4  0
  2  6  4  0
  2 15  4  0
  3  5  4  0
  3  6  4  0
  4 21  4  0
  4 29  4  0
  5 15  4  0
  5 28  1  0
  6 16  4  0
  7 18  4  0
  7 26  4  0
  8 18  1  0
  8 19  4  0
  8 22  4  0
  9 12  4  0
  9 19  4  0
 10 12  4  0
 10 22  4  0
 11 20  4  0
 11 21  4  0
 12 23  1  0
 13 20  4  0
 13 29  4  0
 14 17  4  0
 14 28  4  0
 15 25  2  0
 16 27  4  0
 17 18  4  0
 20 27  1  0
 24 27  4  0
 26 28  4  0
M  END
$$$$

 Created by Python create_sdf_string function

 29 33  0  0  0  0  0  0  0  0999 V2000
    8.8270   -7.0288   18.4251 C   0  0  0  0  0  0  0  0  0  0  0  0
    9.1576   -4.6236   15.8860 O   0  0  0  0  0  0  0  0  0  0  0  0
    9.1509   -5.9108   17.7177 C   0  0  0  0  0  0  0  0  0  0  0  0
    3.6373   -9.5349   16.0582 N   0  0  0  0  0  0  0  0  0  0  0  0
    9.9275   -4.8001   18.0438 N   0  0  0  0  0  0  0  0  0  0  0  0
    8.5908   -5.7425   16.4412 C   0  0  0  0  0  0  0  0  0  0  0  0
   10.5993   -4.8981   21.6068 C   0  0  0  0  0  0  0  0  0  0  0  0
   10.4258   -3.0106   23.0998 C   0  0  0  0  0  0  0  0  0  0  0  0
   10.2148   -3.4364   25.4200 C   0  0  0  0  0  0  0  0  0  0  0  0
    9.7853   -1.1840   24.4927 C   0  0  0  0  0  0  0  0  0  0  0  0
    5.0276   -8.5227   17.5352 C   0  0  0  0  0  0  0  0  0  0  0  0
    9.8187   -2.0895   25.5800 C   0  0  0  0  0  0  0  0  0  0  0  0
    5.6473   -8.7216   15.3158 C   0  0  0  0  0  0  0  0  0  0  0  0
   10.7581   -3.1233   19.4720 N   0  0  0  0  0  0  0  0  0  0  0  0
    9.9571   -4.0573   16.8866 C   0  0  0  0  0  0  0  0  0  0  0  0
    7.6213   -6.5618   16.0087 C   0  0  0  0  0  0  0  0  0  0  0  0
   10.8583   -2.6527   20.7222 C   0  0  0  0  0  0  0  0  0  0  0  0
   10.6412   -3.5089   21.7936 C   0  0  0  0  0  0  0  0  0  0  0  0
   10.4972   -3.8968   24.1589 C   0  0  0  0  0  0  0  0  0  0  0  0
    5.9260   -8.2736   16.5517 C   0  0  0  0  0  0  0  0  0  0  0  0
    3.8816   -9.1166   17.2493 C   0  0  0  0  0  0  0  0  0  0  0  0
   10.1297   -1.6575   23.2324 C   0  0  0  0  0  0  0  0  0  0  0  0
    9.4684   -1.6929   26.7263 F   0  0  0  0  0  0  0  0  0  0  0  0
    7.7963   -7.7906   17.9837 C   0  0  0  0  0  0  0  0  0  0  0  0
   10.5884   -3.0725   16.7902 O   0  0  0  0  0  0  0  0  0  0  0  0
   10.4323   -5.3494   20.3516 C   0  0  0  0  0  0  0  0  0  0  0  0
    7.1156   -7.5454   16.8218 C   0  0  0  0  0  0  0  0  0  0  0  0
   10.3885   -4.4388   19.2773 C   0  0  0  0  0  0  0  0  0  0  0  0
    4.5160   -9.3822   15.0841 C   0  0  0  0  0  0  0  0  0  0  0  0
  1  3  4  0
  1 24  4  0
  2  6  4  0
  2 15  4  0
  3  5  4  0
  3  6  4  0
  4 21  4  0
  4 29  4  0
  5 15  4  0
  5 28  1  0
  6 16  4  0
  7 18  4  0
  7 26  4  0
  8 18  1  0
  8 19  4  0
  8 22  4  0
  9 12  4  0
  9 19  4  0
 10 12  4  0
 10 22  4  0
 11 20  4  0
 11 21  4  0
 12 23  1  0
 13 20  4  0
 13 29  4  0
 14 17  4  0
 14 28  4  0
 15 25  2  0
 16 27  4  0
 17 18  4  0
 20 27  1  0
 24 27  4  0
 26 28  4  0
M  END
$$$$

 Created by Python create_sdf_string function

 29 33  0  0  0  0  0  0  0  0999 V2000
    8.8270   -7.0288   18.4251 C   0  0  0  0  0  0  0  0  0  0  0  0
    9.1576   -4.6236   15.8860 O   0  0  0  0  0  0  0  0  0  0  0  0
    9.1509   -5.9108   17.7177 C   0  0  0  0  0  0  0  0  0  0  0  0
    3.6373   -9.5349   16.0582 N   0  0  0  0  0  0  0  0  0  0  0  0
    9.9275   -4.8001   18.0438 N   0  0  0  0  0  0  0  0  0  0  0  0
    8.5908   -5.7425   16.4412 C   0  0  0  0  0  0  0  0  0  0  0  0
   10.5993   -4.8981   21.6068 C   0  0  0  0  0  0  0  0  0  0  0  0
   10.4258   -3.0106   23.0998 C   0  0  0  0  0  0  0  0  0  0  0  0
   10.2148   -3.4364   25.4200 C   0  0  0  0  0  0  0  0  0  0  0  0
    9.7853   -1.1840   24.4927 C   0  0  0  0  0  0  0  0  0  0  0  0
    5.0276   -8.5227   17.5352 C   0  0  0  0  0  0  0  0  0  0  0  0
    9.8187   -2.0895   25.5800 C   0  0  0  0  0  0  0  0  0  0  0  0
    5.6473   -8.7216   15.3158 C   0  0  0  0  0  0  0  0  0  0  0  0
   10.7581   -3.1233   19.4720 N   0  0  0  0  0  0  0  0  0  0  0  0
    9.9571   -4.0573   16.8866 C   0  0  0  0  0  0  0  0  0  0  0  0
    7.6213   -6.5618   16.0087 C   0  0  0  0  0  0  0  0  0  0  0  0
   10.8583   -2.6527   20.7222 C   0  0  0  0  0  0  0  0  0  0  0  0
   10.6412   -3.5089   21.7936 C   0  0  0  0  0  0  0  0  0  0  0  0
   10.4972   -3.8968   24.1589 C   0  0  0  0  0  0  0  0  0  0  0  0
    5.9260   -8.2736   16.5517 C   0  0  0  0  0  0  0  0  0  0  0  0
    3.8816   -9.1166   17.2493 C   0  0  0  0  0  0  0  0  0  0  0  0
   10.1297   -1.6575   23.2324 C   0  0  0  0  0  0  0  0  0  0  0  0
    9.4684   -1.6929   26.7263 F   0  0  0  0  0  0  0  0  0  0  0  0
    7.7963   -7.7906   17.9837 C   0  0  0  0  0  0  0  0  0  0  0  0
   10.5884   -3.0725   16.7902 O   0  0  0  0  0  0  0  0  0  0  0  0
   10.4323   -5.3494   20.3516 C   0  0  0  0  0  0  0  0  0  0  0  0
    7.1156   -7.5454   16.8218 C   0  0  0  0  0  0  0  0  0  0  0  0
   10.3885   -4.4388   19.2773 C   0  0  0  0  0  0  0  0  0  0  0  0
    4.5160   -9.3822   15.0841 C   0  0  0  0  0  0  0  0  0  0  0  0
  1  3  4  0
  1 24  4  0
  2  6  4  0
  2 15  4  0
  3  5  4  0
  3  6  4  0
  4 21  4  0
  4 29  4  0
  5 15  4  0
  5 28  1  0
  6 16  4  0
  7 18  4  0
  7 26  4  0
  8 18  1  0
  8 19  4  0
  8 22  4  0
  9 12  4  0
  9 19  4  0
 10 12  4  0
 10 22  4  0
 11 20  4  0
 11 21  4  0
 12 23  1  0
 13 20  4  0
 13 29  4  0
 14 17  4  0
 14 28  4  0
 15 25  2  0
 16 27  4  0
 17 18  4  0
 20 27  1  0
 24 27  4  0
 26 28  4  0
M  END
$$$$

 Created by Python create_sdf_string function

 29 33  0  0  0  0  0  0  0  0999 V2000
    8.8270   -7.0288   18.4251 C   0  0  0  0  0  0  0  0  0  0  0  0
    9.1576   -4.6236   15.8860 O   0  0  0  0  0  0  0  0  0  0  0  0
    9.1509   -5.9108   17.7177 C   0  0  0  0  0  0  0  0  0  0  0  0
    3.6373   -9.5349   16.0582 N   0  0  0  0  0  0  0  0  0  0  0  0
    9.9275   -4.8001   18.0438 N   0  0  0  0  0  0  0  0  0  0  0  0
    8.5908   -5.7425   16.4412 C   0  0  0  0  0  0  0  0  0  0  0  0
   10.5993   -4.8981   21.6068 C   0  0  0  0  0  0  0  0  0  0  0  0
   10.4258   -3.0106   23.0998 C   0  0  0  0  0  0  0  0  0  0  0  0
   10.2148   -3.4364   25.4200 C   0  0  0  0  0  0  0  0  0  0  0  0
    9.7853   -1.1840   24.4927 C   0  0  0  0  0  0  0  0  0  0  0  0
    5.0276   -8.5227   17.5352 C   0  0  0  0  0  0  0  0  0  0  0  0
    9.8187   -2.0895   25.5800 C   0  0  0  0  0  0  0  0  0  0  0  0
    5.6473   -8.7216   15.3158 C   0  0  0  0  0  0  0  0  0  0  0  0
   10.7581   -3.1233   19.4720 N   0  0  0  0  0  0  0  0  0  0  0  0
    9.9571   -4.0573   16.8866 C   0  0  0  0  0  0  0  0  0  0  0  0
    7.6213   -6.5618   16.0087 C   0  0  0  0  0  0  0  0  0  0  0  0
   10.8583   -2.6527   20.7222 C   0  0  0  0  0  0  0  0  0  0  0  0
   10.6412   -3.5089   21.7936 C   0  0  0  0  0  0  0  0  0  0  0  0
   10.4972   -3.8968   24.1589 C   0  0  0  0  0  0  0  0  0  0  0  0
    5.9260   -8.2736   16.5517 C   0  0  0  0  0  0  0  0  0  0  0  0
    3.8816   -9.1166   17.2493 C   0  0  0  0  0  0  0  0  0  0  0  0
   10.1297   -1.6575   23.2324 C   0  0  0  0  0  0  0  0  0  0  0  0
    9.4684   -1.6929   26.7263 F   0  0  0  0  0  0  0  0  0  0  0  0
    7.7963   -7.7906   17.9837 C   0  0  0  0  0  0  0  0  0  0  0  0
   10.5884   -3.0725   16.7902 O   0  0  0  0  0  0  0  0  0  0  0  0
   10.4323   -5.3494   20.3516 C   0  0  0  0  0  0  0  0  0  0  0  0
    7.1156   -7.5454   16.8218 C   0  0  0  0  0  0  0  0  0  0  0  0
   10.3885   -4.4388   19.2773 C   0  0  0  0  0  0  0  0  0  0  0  0
    4.5160   -9.3822   15.0841 C   0  0  0  0  0  0  0  0  0  0  0  0
  1  3  4  0
  1 24  4  0
  2  6  4  0
  2 15  4  0
  3  5  4  0
  3  6  4  0
  4 21  4  0
  4 29  4  0
  5 15  4  0
  5 28  1  0
  6 16  4  0
  7 18  4  0
  7 26  4  0
  8 18  1  0
  8 19  4  0
  8 22  4  0
  9 12  4  0
  9 19  4  0
 10 12  4  0
 10 22  4  0
 11 20  4  0
 11 21  4  0
 12 23  1  0
 13 20  4  0
 13 29  4  0
 14 17  4  0
 14 28  4  0
 15 25  2  0
 16 27  4  0
 17 18  4  0
 20 27  1  0
 24 27  4  0
 26 28  4  0
M  END
$$$$

 Created by Python create_sdf_string function

 29 33  0  0  0  0  0  0  0  0999 V2000
    8.8270   -7.0288   18.4251 C   0  0  0  0  0  0  0  0  0  0  0  0
    9.1576   -4.6236   15.8860 O   0  0  0  0  0  0  0  0  0  0  0  0
    9.1509   -5.9108   17.7177 C   0  0  0  0  0  0  0  0  0  0  0  0
    3.6373   -9.5349   16.0582 N   0  0  0  0  0  0  0  0  0  0  0  0
    9.9275   -4.8001   18.0438 N   0  0  0  0  0  0  0  0  0  0  0  0
    8.5908   -5.7425   16.4412 C   0  0  0  0  0  0  0  0  0  0  0  0
   10.5993   -4.8981   21.6068 C   0  0  0  0  0  0  0  0  0  0  0  0
   10.4258   -3.0106   23.0998 C   0  0  0  0  0  0  0  0  0  0  0  0
   10.2148   -3.4364   25.4200 C   0  0  0  0  0  0  0  0  0  0  0  0
    9.7853   -1.1840   24.4927 C   0  0  0  0  0  0  0  0  0  0  0  0
    5.0276   -8.5227   17.5352 C   0  0  0  0  0  0  0  0  0  0  0  0
    9.8187   -2.0895   25.5800 C   0  0  0  0  0  0  0  0  0  0  0  0
    5.6473   -8.7216   15.3158 C   0  0  0  0  0  0  0  0  0  0  0  0
   10.7581   -3.1233   19.4720 N   0  0  0  0  0  0  0  0  0  0  0  0
    9.9571   -4.0573   16.8866 C   0  0  0  0  0  0  0  0  0  0  0  0
    7.6213   -6.5618   16.0087 C   0  0  0  0  0  0  0  0  0  0  0  0
   10.8583   -2.6527   20.7222 C   0  0  0  0  0  0  0  0  0  0  0  0
   10.6412   -3.5089   21.7936 C   0  0  0  0  0  0  0  0  0  0  0  0
   10.4972   -3.8968   24.1589 C   0  0  0  0  0  0  0  0  0  0  0  0
    5.9260   -8.2736   16.5517 C   0  0  0  0  0  0  0  0  0  0  0  0
    3.8816   -9.1166   17.2493 C   0  0  0  0  0  0  0  0  0  0  0  0
   10.1297   -1.6575   23.2324 C   0  0  0  0  0  0  0  0  0  0  0  0
    9.4684   -1.6929   26.7263 F   0  0  0  0  0  0  0  0  0  0  0  0
    7.7963   -7.7906   17.9837 C   0  0  0  0  0  0  0  0  0  0  0  0
   10.5884   -3.0725   16.7902 O   0  0  0  0  0  0  0  0  0  0  0  0
   10.4323   -5.3494   20.3516 C   0  0  0  0  0  0  0  0  0  0  0  0
    7.1156   -7.5454   16.8218 C   0  0  0  0  0  0  0  0  0  0  0  0
   10.3885   -4.4388   19.2773 C   0  0  0  0  0  0  0  0  0  0  0  0
    4.5160   -9.3822   15.0841 C   0  0  0  0  0  0  0  0  0  0  0  0
  1  3  4  0
  1 24  4  0
  2  6  4  0
  2 15  4  0
  3  5  4  0
  3  6  4  0
  4 21  4  0
  4 29  4  0
  5 15  4  0
  5 28  1  0
  6 16  4  0
  7 18  4  0
  7 26  4  0
  8 18  1  0
  8 19  4  0
  8 22  4  0
  9 12  4  0
  9 19  4  0
 10 12  4  0
 10 22  4  0
 11 20  4  0
 11 21  4  0
 12 23  1  0
 13 20  4  0
 13 29  4  0
 14 17  4  0
 14 28  4  0
 15 25  2  0
 16 27  4  0
 17 18  4  0
 20 27  1  0
 24 27  4  0
 26 28  4  0
M  END
$$$$

 Created by Python create_sdf_string function

 29 33  0  0  0  0  0  0  0  0999 V2000
    8.8270   -7.0288   18.4251 C   0  0  0  0  0  0  0  0  0  0  0  0
    9.1576   -4.6236   15.8860 O   0  0  0  0  0  0  0  0  0  0  0  0
    9.1509   -5.9108   17.7177 C   0  0  0  0  0  0  0  0  0  0  0  0
    3.6373   -9.5349   16.0582 N   0  0  0  0  0  0  0  0  0  0  0  0
    9.9275   -4.8001   18.0438 N   0  0  0  0  0  0  0  0  0  0  0  0
    8.5908   -5.7425   16.4412 C   0  0  0  0  0  0  0  0  0  0  0  0
   10.5993   -4.8981   21.6068 C   0  0  0  0  0  0  0  0  0  0  0  0
   10.4258   -3.0106   23.0998 C   0  0  0  0  0  0  0  0  0  0  0  0
   10.2148   -3.4364   25.4200 C   0  0  0  0  0  0  0  0  0  0  0  0
    9.7853   -1.1840   24.4927 C   0  0  0  0  0  0  0  0  0  0  0  0
    5.0276   -8.5227   17.5352 C   0  0  0  0  0  0  0  0  0  0  0  0
    9.8187   -2.0895   25.5800 C   0  0  0  0  0  0  0  0  0  0  0  0
    5.6473   -8.7216   15.3158 C   0  0  0  0  0  0  0  0  0  0  0  0
   10.7581   -3.1233   19.4720 N   0  0  0  0  0  0  0  0  0  0  0  0
    9.9571   -4.0573   16.8866 C   0  0  0  0  0  0  0  0  0  0  0  0
    7.6213   -6.5618   16.0087 C   0  0  0  0  0  0  0  0  0  0  0  0
   10.8583   -2.6527   20.7222 C   0  0  0  0  0  0  0  0  0  0  0  0
   10.6412   -3.5089   21.7936 C   0  0  0  0  0  0  0  0  0  0  0  0
   10.4972   -3.8968   24.1589 C   0  0  0  0  0  0  0  0  0  0  0  0
    5.9260   -8.2736   16.5517 C   0  0  0  0  0  0  0  0  0  0  0  0
    3.8816   -9.1166   17.2493 C   0  0  0  0  0  0  0  0  0  0  0  0
   10.1297   -1.6575   23.2324 C   0  0  0  0  0  0  0  0  0  0  0  0
    9.4684   -1.6929   26.7263 F   0  0  0  0  0  0  0  0  0  0  0  0
    7.7963   -7.7906   17.9837 C   0  0  0  0  0  0  0  0  0  0  0  0
   10.5884   -3.0725   16.7902 O   0  0  0  0  0  0  0  0  0  0  0  0
   10.4323   -5.3494   20.3516 C   0  0  0  0  0  0  0  0  0  0  0  0
    7.1156   -7.5454   16.8218 C   0  0  0  0  0  0  0  0  0  0  0  0
   10.3885   -4.4388   19.2773 C   0  0  0  0  0  0  0  0  0  0  0  0
    4.5160   -9.3822   15.0841 C   0  0  0  0  0  0  0  0  0  0  0  0
  1  3  4  0
  1 24  4  0
  2  6  4  0
  2 15  4  0
  3  5  4  0
  3  6  4  0
  4 21  4  0
  4 29  4  0
  5 15  4  0
  5 28  1  0
  6 16  4  0
  7 18  4  0
  7 26  4  0
  8 18  1  0
  8 19  4  0
  8 22  4  0
  9 12  4  0
  9 19  4  0
 10 12  4  0
 10 22  4  0
 11 20  4  0
 11 21  4  0
 12 23  1  0
 13 20  4  0
 13 29  4  0
 14 17  4  0
 14 28  4  0
 15 25  2  0
 16 27  4  0
 17 18  4  0
 20 27  1  0
 24 27  4  0
 26 28  4  0
M  END
$$$$

 Created by Python create_sdf_string function

 29 33  0  0  0  0  0  0  0  0999 V2000
    8.8270   -7.0288   18.4251 C   0  0  0  0  0  0  0  0  0  0  0  0
    9.1576   -4.6236   15.8860 O   0  0  0  0  0  0  0  0  0  0  0  0
    9.1509   -5.9108   17.7177 C   0  0  0  0  0  0  0  0  0  0  0  0
    3.6373   -9.5349   16.0582 N   0  0  0  0  0  0  0  0  0  0  0  0
    9.9275   -4.8001   18.0438 N   0  0  0  0  0  0  0  0  0  0  0  0
    8.5908   -5.7425   16.4412 C   0  0  0  0  0  0  0  0  0  0  0  0
   10.5993   -4.8981   21.6068 C   0  0  0  0  0  0  0  0  0  0  0  0
   10.4258   -3.0106   23.0998 C   0  0  0  0  0  0  0  0  0  0  0  0
   10.2148   -3.4364   25.4200 C   0  0  0  0  0  0  0  0  0  0  0  0
    9.7853   -1.1840   24.4927 C   0  0  0  0  0  0  0  0  0  0  0  0
    5.0276   -8.5227   17.5352 C   0  0  0  0  0  0  0  0  0  0  0  0
    9.8187   -2.0895   25.5800 C   0  0  0  0  0  0  0  0  0  0  0  0
    5.6473   -8.7216   15.3158 C   0  0  0  0  0  0  0  0  0  0  0  0
   10.7581   -3.1233   19.4720 N   0  0  0  0  0  0  0  0  0  0  0  0
    9.9571   -4.0573   16.8866 C   0  0  0  0  0  0  0  0  0  0  0  0
    7.6213   -6.5618   16.0087 C   0  0  0  0  0  0  0  0  0  0  0  0
   10.8583   -2.6527   20.7222 C   0  0  0  0  0  0  0  0  0  0  0  0
   10.6412   -3.5089   21.7936 C   0  0  0  0  0  0  0  0  0  0  0  0
   10.4972   -3.8968   24.1589 C   0  0  0  0  0  0  0  0  0  0  0  0
    5.9260   -8.2736   16.5517 C   0  0  0  0  0  0  0  0  0  0  0  0
    3.8816   -9.1166   17.2493 C   0  0  0  0  0  0  0  0  0  0  0  0
   10.1297   -1.6575   23.2324 C   0  0  0  0  0  0  0  0  0  0  0  0
    9.4684   -1.6929   26.7263 F   0  0  0  0  0  0  0  0  0  0  0  0
    7.7963   -7.7906   17.9837 C   0  0  0  0  0  0  0  0  0  0  0  0
   10.5884   -3.0725   16.7902 O   0  0  0  0  0  0  0  0  0  0  0  0
   10.4323   -5.3494   20.3516 C   0  0  0  0  0  0  0  0  0  0  0  0
    7.1156   -7.5454   16.8218 C   0  0  0  0  0  0  0  0  0  0  0  0
   10.3885   -4.4388   19.2773 C   0  0  0  0  0  0  0  0  0  0  0  0
    4.5160   -9.3822   15.0841 C   0  0  0  0  0  0  0  0  0  0  0  0
  1  3  4  0
  1 24  4  0
  2  6  4  0
  2 15  4  0
  3  5  4  0
  3  6  4  0
  4 21  4  0
  4 29  4  0
  5 15  4  0
  5 28  1  0
  6 16  4  0
  7 18  4  0
  7 26  4  0
  8 18  1  0
  8 19  4  0
  8 22  4  0
  9 12  4  0
  9 19  4  0
 10 12  4  0
 10 22  4  0
 11 20  4  0
 11 21  4  0
 12 23  1  0
 13 20  4  0
 13 29  4  0
 14 17  4  0
 14 28  4  0
 15 25  2  0
 16 27  4  0
 17 18  4  0
 20 27  1  0
 24 27  4  0
 26 28  4  0
M  END
$$$$

 Created by Python create_sdf_string function

 29 33  0  0  0  0  0  0  0  0999 V2000
    8.8270   -7.0288   18.4251 C   0  0  0  0  0  0  0  0  0  0  0  0
    9.1576   -4.6236   15.8860 O   0  0  0  0  0  0  0  0  0  0  0  0
    9.1509   -5.9108   17.7177 C   0  0  0  0  0  0  0  0  0  0  0  0
    3.6373   -9.5349   16.0582 N   0  0  0  0  0  0  0  0  0  0  0  0
    9.9275   -4.8001   18.0438 N   0  0  0  0  0  0  0  0  0  0  0  0
    8.5908   -5.7425   16.4412 C   0  0  0  0  0  0  0  0  0  0  0  0
   10.5993   -4.8981   21.6068 C   0  0  0  0  0  0  0  0  0  0  0  0
   10.4258   -3.0106   23.0998 C   0  0  0  0  0  0  0  0  0  0  0  0
   10.2148   -3.4364   25.4200 C   0  0  0  0  0  0  0  0  0  0  0  0
    9.7853   -1.1840   24.4927 C   0  0  0  0  0  0  0  0  0  0  0  0
    5.0276   -8.5227   17.5352 C   0  0  0  0  0  0  0  0  0  0  0  0
    9.8187   -2.0895   25.5800 C   0  0  0  0  0  0  0  0  0  0  0  0
    5.6473   -8.7216   15.3158 C   0  0  0  0  0  0  0  0  0  0  0  0
   10.7581   -3.1233   19.4720 N   0  0  0  0  0  0  0  0  0  0  0  0
    9.9571   -4.0573   16.8866 C   0  0  0  0  0  0  0  0  0  0  0  0
    7.6213   -6.5618   16.0087 C   0  0  0  0  0  0  0  0  0  0  0  0
   10.8583   -2.6527   20.7222 C   0  0  0  0  0  0  0  0  0  0  0  0
   10.6412   -3.5089   21.7936 C   0  0  0  0  0  0  0  0  0  0  0  0
   10.4972   -3.8968   24.1589 C   0  0  0  0  0  0  0  0  0  0  0  0
    5.9260   -8.2736   16.5517 C   0  0  0  0  0  0  0  0  0  0  0  0
    3.8816   -9.1166   17.2493 C   0  0  0  0  0  0  0  0  0  0  0  0
   10.1297   -1.6575   23.2324 C   0  0  0  0  0  0  0  0  0  0  0  0
    9.4684   -1.6929   26.7263 F   0  0  0  0  0  0  0  0  0  0  0  0
    7.7963   -7.7906   17.9837 C   0  0  0  0  0  0  0  0  0  0  0  0
   10.5884   -3.0725   16.7902 O   0  0  0  0  0  0  0  0  0  0  0  0
   10.4323   -5.3494   20.3516 C   0  0  0  0  0  0  0  0  0  0  0  0
    7.1156   -7.5454   16.8218 C   0  0  0  0  0  0  0  0  0  0  0  0
   10.3885   -4.4388   19.2773 C   0  0  0  0  0  0  0  0  0  0  0  0
    4.5160   -9.3822   15.0841 C   0  0  0  0  0  0  0  0  0  0  0  0
  1  3  4  0
  1 24  4  0
  2  6  4  0
  2 15  4  0
  3  5  4  0
  3  6  4  0
  4 21  4  0
  4 29  4  0
  5 15  4  0
  5 28  1  0
  6 16  4  0
  7 18  4  0
  7 26  4  0
  8 18  1  0
  8 19  4  0
  8 22  4  0
  9 12  4  0
  9 19  4  0
 10 12  4  0
 10 22  4  0
 11 20  4  0
 11 21  4  0
 12 23  1  0
 13 20  4  0
 13 29  4  0
 14 17  4  0
 14 28  4  0
 15 25  2  0
 16 27  4  0
 17 18  4  0
 20 27  1  0
 24 27  4  0
 26 28  4  0
M  END
$$$$

 Created by Python create_sdf_string function

 29 33  0  0  0  0  0  0  0  0999 V2000
    8.8270   -7.0288   18.4251 C   0  0  0  0  0  0  0  0  0  0  0  0
    9.1576   -4.6236   15.8860 O   0  0  0  0  0  0  0  0  0  0  0  0
    9.1509   -5.9108   17.7177 C   0  0  0  0  0  0  0  0  0  0  0  0
    3.6373   -9.5349   16.0582 N   0  0  0  0  0  0  0  0  0  0  0  0
    9.9275   -4.8001   18.0438 N   0  0  0  0  0  0  0  0  0  0  0  0
    8.5908   -5.7425   16.4412 C   0  0  0  0  0  0  0  0  0  0  0  0
   10.5993   -4.8981   21.6068 C   0  0  0  0  0  0  0  0  0  0  0  0
   10.4258   -3.0106   23.0998 C   0  0  0  0  0  0  0  0  0  0  0  0
   10.2148   -3.4364   25.4200 C   0  0  0  0  0  0  0  0  0  0  0  0
    9.7853   -1.1840   24.4927 C   0  0  0  0  0  0  0  0  0  0  0  0
    5.0276   -8.5227   17.5352 C   0  0  0  0  0  0  0  0  0  0  0  0
    9.8187   -2.0895   25.5800 C   0  0  0  0  0  0  0  0  0  0  0  0
    5.6473   -8.7216   15.3158 C   0  0  0  0  0  0  0  0  0  0  0  0
   10.7581   -3.1233   19.4720 N   0  0  0  0  0  0  0  0  0  0  0  0
    9.9571   -4.0573   16.8866 C   0  0  0  0  0  0  0  0  0  0  0  0
    7.6213   -6.5618   16.0087 C   0  0  0  0  0  0  0  0  0  0  0  0
   10.8583   -2.6527   20.7222 C   0  0  0  0  0  0  0  0  0  0  0  0
   10.6412   -3.5089   21.7936 C   0  0  0  0  0  0  0  0  0  0  0  0
   10.4972   -3.8968   24.1589 C   0  0  0  0  0  0  0  0  0  0  0  0
    5.9260   -8.2736   16.5517 C   0  0  0  0  0  0  0  0  0  0  0  0
    3.8816   -9.1166   17.2493 C   0  0  0  0  0  0  0  0  0  0  0  0
   10.1297   -1.6575   23.2324 C   0  0  0  0  0  0  0  0  0  0  0  0
    9.4684   -1.6929   26.7263 F   0  0  0  0  0  0  0  0  0  0  0  0
    7.7963   -7.7906   17.9837 C   0  0  0  0  0  0  0  0  0  0  0  0
   10.5884   -3.0725   16.7902 O   0  0  0  0  0  0  0  0  0  0  0  0
   10.4323   -5.3494   20.3516 C   0  0  0  0  0  0  0  0  0  0  0  0
    7.1156   -7.5454   16.8218 C   0  0  0  0  0  0  0  0  0  0  0  0
   10.3885   -4.4388   19.2773 C   0  0  0  0  0  0  0  0  0  0  0  0
    4.5160   -9.3822   15.0841 C   0  0  0  0  0  0  0  0  0  0  0  0
  1  3  4  0
  1 24  4  0
  2  6  4  0
  2 15  4  0
  3  5  4  0
  3  6  4  0
  4 21  4  0
  4 29  4  0
  5 15  4  0
  5 28  1  0
  6 16  4  0
  7 18  4  0
  7 26  4  0
  8 18  1  0
  8 19  4  0
  8 22  4  0
  9 12  4  0
  9 19  4  0
 10 12  4  0
 10 22  4  0
 11 20  4  0
 11 21  4  0
 12 23  1  0
 13 20  4  0
 13 29  4  0
 14 17  4  0
 14 28  4  0
 15 25  2  0
 16 27  4  0
 17 18  4  0
 20 27  1  0
 24 27  4  0
 26 28  4  0
M  END
$$$$

 Created by Python create_sdf_string function

 29 33  0  0  0  0  0  0  0  0999 V2000
    8.8270   -7.0288   18.4251 C   0  0  0  0  0  0  0  0  0  0  0  0
    9.1576   -4.6236   15.8860 O   0  0  0  0  0  0  0  0  0  0  0  0
    9.1509   -5.9108   17.7177 C   0  0  0  0  0  0  0  0  0  0  0  0
    3.6373   -9.5349   16.0582 N   0  0  0  0  0  0  0  0  0  0  0  0
    9.9275   -4.8001   18.0438 N   0  0  0  0  0  0  0  0  0  0  0  0
    8.5908   -5.7425   16.4412 C   0  0  0  0  0  0  0  0  0  0  0  0
   10.5993   -4.8981   21.6068 C   0  0  0  0  0  0  0  0  0  0  0  0
   10.4258   -3.0106   23.0998 C   0  0  0  0  0  0  0  0  0  0  0  0
   10.2148   -3.4364   25.4200 C   0  0  0  0  0  0  0  0  0  0  0  0
    9.7853   -1.1840   24.4927 C   0  0  0  0  0  0  0  0  0  0  0  0
    5.0276   -8.5227   17.5352 C   0  0  0  0  0  0  0  0  0  0  0  0
    9.8187   -2.0895   25.5800 C   0  0  0  0  0  0  0  0  0  0  0  0
    5.6473   -8.7216   15.3158 C   0  0  0  0  0  0  0  0  0  0  0  0
   10.7581   -3.1233   19.4720 N   0  0  0  0  0  0  0  0  0  0  0  0
    9.9571   -4.0573   16.8866 C   0  0  0  0  0  0  0  0  0  0  0  0
    7.6213   -6.5618   16.0087 C   0  0  0  0  0  0  0  0  0  0  0  0
   10.8583   -2.6527   20.7222 C   0  0  0  0  0  0  0  0  0  0  0  0
   10.6412   -3.5089   21.7936 C   0  0  0  0  0  0  0  0  0  0  0  0
   10.4972   -3.8968   24.1589 C   0  0  0  0  0  0  0  0  0  0  0  0
    5.9260   -8.2736   16.5517 C   0  0  0  0  0  0  0  0  0  0  0  0
    3.8816   -9.1166   17.2493 C   0  0  0  0  0  0  0  0  0  0  0  0
   10.1297   -1.6575   23.2324 C   0  0  0  0  0  0  0  0  0  0  0  0
    9.4684   -1.6929   26.7263 F   0  0  0  0  0  0  0  0  0  0  0  0
    7.7963   -7.7906   17.9837 C   0  0  0  0  0  0  0  0  0  0  0  0
   10.5884   -3.0725   16.7902 O   0  0  0  0  0  0  0  0  0  0  0  0
   10.4323   -5.3494   20.3516 C   0  0  0  0  0  0  0  0  0  0  0  0
    7.1156   -7.5454   16.8218 C   0  0  0  0  0  0  0  0  0  0  0  0
   10.3885   -4.4388   19.2773 C   0  0  0  0  0  0  0  0  0  0  0  0
    4.5160   -9.3822   15.0841 C   0  0  0  0  0  0  0  0  0  0  0  0
  1  3  4  0
  1 24  4  0
  2  6  4  0
  2 15  4  0
  3  5  4  0
  3  6  4  0
  4 21  4  0
  4 29  4  0
  5 15  4  0
  5 28  1  0
  6 16  4  0
  7 18  4  0
  7 26  4  0
  8 18  1  0
  8 19  4  0
  8 22  4  0
  9 12  4  0
  9 19  4  0
 10 12  4  0
 10 22  4  0
 11 20  4  0
 11 21  4  0
 12 23  1  0
 13 20  4  0
 13 29  4  0
 14 17  4  0
 14 28  4  0
 15 25  2  0
 16 27  4  0
 17 18  4  0
 20 27  1  0
 24 27  4  0
 26 28  4  0
M  END
$$$$

 Created by Python create_sdf_string function

 29 33  0  0  0  0  0  0  0  0999 V2000
    8.8270   -7.0288   18.4251 C   0  0  0  0  0  0  0  0  0  0  0  0
    9.1576   -4.6236   15.8860 O   0  0  0  0  0  0  0  0  0  0  0  0
    9.1509   -5.9108   17.7177 C   0  0  0  0  0  0  0  0  0  0  0  0
    3.6373   -9.5349   16.0582 N   0  0  0  0  0  0  0  0  0  0  0  0
    9.9275   -4.8001   18.0438 N   0  0  0  0  0  0  0  0  0  0  0  0
    8.5908   -5.7425   16.4412 C   0  0  0  0  0  0  0  0  0  0  0  0
   10.5993   -4.8981   21.6068 C   0  0  0  0  0  0  0  0  0  0  0  0
   10.4258   -3.0106   23.0998 C   0  0  0  0  0  0  0  0  0  0  0  0
   10.2148   -3.4364   25.4200 C   0  0  0  0  0  0  0  0  0  0  0  0
    9.7853   -1.1840   24.4927 C   0  0  0  0  0  0  0  0  0  0  0  0
    5.0276   -8.5227   17.5352 C   0  0  0  0  0  0  0  0  0  0  0  0
    9.8187   -2.0895   25.5800 C   0  0  0  0  0  0  0  0  0  0  0  0
    5.6473   -8.7216   15.3158 C   0  0  0  0  0  0  0  0  0  0  0  0
   10.7581   -3.1233   19.4720 N   0  0  0  0  0  0  0  0  0  0  0  0
    9.9571   -4.0573   16.8866 C   0  0  0  0  0  0  0  0  0  0  0  0
    7.6213   -6.5618   16.0087 C   0  0  0  0  0  0  0  0  0  0  0  0
   10.8583   -2.6527   20.7222 C   0  0  0  0  0  0  0  0  0  0  0  0
   10.6412   -3.5089   21.7936 C   0  0  0  0  0  0  0  0  0  0  0  0
   10.4972   -3.8968   24.1589 C   0  0  0  0  0  0  0  0  0  0  0  0
    5.9260   -8.2736   16.5517 C   0  0  0  0  0  0  0  0  0  0  0  0
    3.8816   -9.1166   17.2493 C   0  0  0  0  0  0  0  0  0  0  0  0
   10.1297   -1.6575   23.2324 C   0  0  0  0  0  0  0  0  0  0  0  0
    9.4684   -1.6929   26.7263 F   0  0  0  0  0  0  0  0  0  0  0  0
    7.7963   -7.7906   17.9837 C   0  0  0  0  0  0  0  0  0  0  0  0
   10.5884   -3.0725   16.7902 O   0  0  0  0  0  0  0  0  0  0  0  0
   10.4323   -5.3494   20.3516 C   0  0  0  0  0  0  0  0  0  0  0  0
    7.1156   -7.5454   16.8218 C   0  0  0  0  0  0  0  0  0  0  0  0
   10.3885   -4.4388   19.2773 C   0  0  0  0  0  0  0  0  0  0  0  0
    4.5160   -9.3822   15.0841 C   0  0  0  0  0  0  0  0  0  0  0  0
  1  3  4  0
  1 24  4  0
  2  6  4  0
  2 15  4  0
  3  5  4  0
  3  6  4  0
  4 21  4  0
  4 29  4  0
  5 15  4  0
  5 28  1  0
  6 16  4  0
  7 18  4  0
  7 26  4  0
  8 18  1  0
  8 19  4  0
  8 22  4  0
  9 12  4  0
  9 19  4  0
 10 12  4  0
 10 22  4  0
 11 20  4  0
 11 21  4  0
 12 23  1  0
 13 20  4  0
 13 29  4  0
 14 17  4  0
 14 28  4  0
 15 25  2  0
 16 27  4  0
 17 18  4  0
 20 27  1  0
 24 27  4  0
 26 28  4  0
M  END
$$$$

 Created by Python create_sdf_string function

 29 33  0  0  0  0  0  0  0  0999 V2000
    8.8270   -7.0288   18.4251 C   0  0  0  0  0  0  0  0  0  0  0  0
    9.1576   -4.6236   15.8860 O   0  0  0  0  0  0  0  0  0  0  0  0
    9.1509   -5.9108   17.7177 C   0  0  0  0  0  0  0  0  0  0  0  0
    3.6373   -9.5349   16.0582 N   0  0  0  0  0  0  0  0  0  0  0  0
    9.9275   -4.8001   18.0438 N   0  0  0  0  0  0  0  0  0  0  0  0
    8.5908   -5.7425   16.4412 C   0  0  0  0  0  0  0  0  0  0  0  0
   10.5993   -4.8981   21.6068 C   0  0  0  0  0  0  0  0  0  0  0  0
   10.4258   -3.0106   23.0998 C   0  0  0  0  0  0  0  0  0  0  0  0
   10.2148   -3.4364   25.4200 C   0  0  0  0  0  0  0  0  0  0  0  0
    9.7853   -1.1840   24.4927 C   0  0  0  0  0  0  0  0  0  0  0  0
    5.0276   -8.5227   17.5352 C   0  0  0  0  0  0  0  0  0  0  0  0
    9.8187   -2.0895   25.5800 C   0  0  0  0  0  0  0  0  0  0  0  0
    5.6473   -8.7216   15.3158 C   0  0  0  0  0  0  0  0  0  0  0  0
   10.7581   -3.1233   19.4720 N   0  0  0  0  0  0  0  0  0  0  0  0
    9.9571   -4.0573   16.8866 C   0  0  0  0  0  0  0  0  0  0  0  0
    7.6213   -6.5618   16.0087 C   0  0  0  0  0  0  0  0  0  0  0  0
   10.8583   -2.6527   20.7222 C   0  0  0  0  0  0  0  0  0  0  0  0
   10.6412   -3.5089   21.7936 C   0  0  0  0  0  0  0  0  0  0  0  0
   10.4972   -3.8968   24.1589 C   0  0  0  0  0  0  0  0  0  0  0  0
    5.9260   -8.2736   16.5517 C   0  0  0  0  0  0  0  0  0  0  0  0
    3.8816   -9.1166   17.2493 C   0  0  0  0  0  0  0  0  0  0  0  0
   10.1297   -1.6575   23.2324 C   0  0  0  0  0  0  0  0  0  0  0  0
    9.4684   -1.6929   26.7263 F   0  0  0  0  0  0  0  0  0  0  0  0
    7.7963   -7.7906   17.9837 C   0  0  0  0  0  0  0  0  0  0  0  0
   10.5884   -3.0725   16.7902 O   0  0  0  0  0  0  0  0  0  0  0  0
   10.4323   -5.3494   20.3516 C   0  0  0  0  0  0  0  0  0  0  0  0
    7.1156   -7.5454   16.8218 C   0  0  0  0  0  0  0  0  0  0  0  0
   10.3885   -4.4388   19.2773 C   0  0  0  0  0  0  0  0  0  0  0  0
    4.5160   -9.3822   15.0841 C   0  0  0  0  0  0  0  0  0  0  0  0
  1  3  4  0
  1 24  4  0
  2  6  4  0
  2 15  4  0
  3  5  4  0
  3  6  4  0
  4 21  4  0
  4 29  4  0
  5 15  4  0
  5 28  1  0
  6 16  4  0
  7 18  4  0
  7 26  4  0
  8 18  1  0
  8 19  4  0
  8 22  4  0
  9 12  4  0
  9 19  4  0
 10 12  4  0
 10 22  4  0
 11 20  4  0
 11 21  4  0
 12 23  1  0
 13 20  4  0
 13 29  4  0
 14 17  4  0
 14 28  4  0
 15 25  2  0
 16 27  4  0
 17 18  4  0
 20 27  1  0
 24 27  4  0
 26 28  4  0
M  END
$$$$

 Created by Python create_sdf_string function

 29 33  0  0  0  0  0  0  0  0999 V2000
    8.8270   -7.0288   18.4251 C   0  0  0  0  0  0  0  0  0  0  0  0
    9.1576   -4.6236   15.8860 O   0  0  0  0  0  0  0  0  0  0  0  0
    9.1509   -5.9108   17.7177 C   0  0  0  0  0  0  0  0  0  0  0  0
    3.6373   -9.5349   16.0582 N   0  0  0  0  0  0  0  0  0  0  0  0
    9.9275   -4.8001   18.0438 N   0  0  0  0  0  0  0  0  0  0  0  0
    8.5908   -5.7425   16.4412 C   0  0  0  0  0  0  0  0  0  0  0  0
   10.5993   -4.8981   21.6068 C   0  0  0  0  0  0  0  0  0  0  0  0
   10.4258   -3.0106   23.0998 C   0  0  0  0  0  0  0  0  0  0  0  0
   10.2148   -3.4364   25.4200 C   0  0  0  0  0  0  0  0  0  0  0  0
    9.7853   -1.1840   24.4927 C   0  0  0  0  0  0  0  0  0  0  0  0
    5.0276   -8.5227   17.5352 C   0  0  0  0  0  0  0  0  0  0  0  0
    9.8187   -2.0895   25.5800 C   0  0  0  0  0  0  0  0  0  0  0  0
    5.6473   -8.7216   15.3158 C   0  0  0  0  0  0  0  0  0  0  0  0
   10.7581   -3.1233   19.4720 N   0  0  0  0  0  0  0  0  0  0  0  0
    9.9571   -4.0573   16.8866 C   0  0  0  0  0  0  0  0  0  0  0  0
    7.6213   -6.5618   16.0087 C   0  0  0  0  0  0  0  0  0  0  0  0
   10.8583   -2.6527   20.7222 C   0  0  0  0  0  0  0  0  0  0  0  0
   10.6412   -3.5089   21.7936 C   0  0  0  0  0  0  0  0  0  0  0  0
   10.4972   -3.8968   24.1589 C   0  0  0  0  0  0  0  0  0  0  0  0
    5.9260   -8.2736   16.5517 C   0  0  0  0  0  0  0  0  0  0  0  0
    3.8816   -9.1166   17.2493 C   0  0  0  0  0  0  0  0  0  0  0  0
   10.1297   -1.6575   23.2324 C   0  0  0  0  0  0  0  0  0  0  0  0
    9.4684   -1.6929   26.7263 F   0  0  0  0  0  0  0  0  0  0  0  0
    7.7963   -7.7906   17.9837 C   0  0  0  0  0  0  0  0  0  0  0  0
   10.5884   -3.0725   16.7902 O   0  0  0  0  0  0  0  0  0  0  0  0
   10.4323   -5.3494   20.3516 C   0  0  0  0  0  0  0  0  0  0  0  0
    7.1156   -7.5454   16.8218 C   0  0  0  0  0  0  0  0  0  0  0  0
   10.3885   -4.4388   19.2773 C   0  0  0  0  0  0  0  0  0  0  0  0
    4.5160   -9.3822   15.0841 C   0  0  0  0  0  0  0  0  0  0  0  0
  1  3  4  0
  1 24  4  0
  2  6  4  0
  2 15  4  0
  3  5  4  0
  3  6  4  0
  4 21  4  0
  4 29  4  0
  5 15  4  0
  5 28  1  0
  6 16  4  0
  7 18  4  0
  7 26  4  0
  8 18  1  0
  8 19  4  0
  8 22  4  0
  9 12  4  0
  9 19  4  0
 10 12  4  0
 10 22  4  0
 11 20  4  0
 11 21  4  0
 12 23  1  0
 13 20  4  0
 13 29  4  0
 14 17  4  0
 14 28  4  0
 15 25  2  0
 16 27  4  0
 17 18  4  0
 20 27  1  0
 24 27  4  0
 26 28  4  0
M  END
$$$$

 Created by Python create_sdf_string function

 29 33  0  0  0  0  0  0  0  0999 V2000
    8.8270   -7.0288   18.4251 C   0  0  0  0  0  0  0  0  0  0  0  0
    9.1576   -4.6236   15.8860 O   0  0  0  0  0  0  0  0  0  0  0  0
    9.1509   -5.9108   17.7177 C   0  0  0  0  0  0  0  0  0  0  0  0
    3.6373   -9.5349   16.0582 N   0  0  0  0  0  0  0  0  0  0  0  0
    9.9275   -4.8001   18.0438 N   0  0  0  0  0  0  0  0  0  0  0  0
    8.5908   -5.7425   16.4412 C   0  0  0  0  0  0  0  0  0  0  0  0
   10.5993   -4.8981   21.6068 C   0  0  0  0  0  0  0  0  0  0  0  0
   10.4258   -3.0106   23.0998 C   0  0  0  0  0  0  0  0  0  0  0  0
   10.2148   -3.4364   25.4200 C   0  0  0  0  0  0  0  0  0  0  0  0
    9.7853   -1.1840   24.4927 C   0  0  0  0  0  0  0  0  0  0  0  0
    5.0276   -8.5227   17.5352 C   0  0  0  0  0  0  0  0  0  0  0  0
    9.8187   -2.0895   25.5800 C   0  0  0  0  0  0  0  0  0  0  0  0
    5.6473   -8.7216   15.3158 C   0  0  0  0  0  0  0  0  0  0  0  0
   10.7581   -3.1233   19.4720 N   0  0  0  0  0  0  0  0  0  0  0  0
    9.9571   -4.0573   16.8866 C   0  0  0  0  0  0  0  0  0  0  0  0
    7.6213   -6.5618   16.0087 C   0  0  0  0  0  0  0  0  0  0  0  0
   10.8583   -2.6527   20.7222 C   0  0  0  0  0  0  0  0  0  0  0  0
   10.6412   -3.5089   21.7936 C   0  0  0  0  0  0  0  0  0  0  0  0
   10.4972   -3.8968   24.1589 C   0  0  0  0  0  0  0  0  0  0  0  0
    5.9260   -8.2736   16.5517 C   0  0  0  0  0  0  0  0  0  0  0  0
    3.8816   -9.1166   17.2493 C   0  0  0  0  0  0  0  0  0  0  0  0
   10.1297   -1.6575   23.2324 C   0  0  0  0  0  0  0  0  0  0  0  0
    9.4684   -1.6929   26.7263 F   0  0  0  0  0  0  0  0  0  0  0  0
    7.7963   -7.7906   17.9837 C   0  0  0  0  0  0  0  0  0  0  0  0
   10.5884   -3.0725   16.7902 O   0  0  0  0  0  0  0  0  0  0  0  0
   10.4323   -5.3494   20.3516 C   0  0  0  0  0  0  0  0  0  0  0  0
    7.1156   -7.5454   16.8218 C   0  0  0  0  0  0  0  0  0  0  0  0
   10.3885   -4.4388   19.2773 C   0  0  0  0  0  0  0  0  0  0  0  0
    4.5160   -9.3822   15.0841 C   0  0  0  0  0  0  0  0  0  0  0  0
  1  3  4  0
  1 24  4  0
  2  6  4  0
  2 15  4  0
  3  5  4  0
  3  6  4  0
  4 21  4  0
  4 29  4  0
  5 15  4  0
  5 28  1  0
  6 16  4  0
  7 18  4  0
  7 26  4  0
  8 18  1  0
  8 19  4  0
  8 22  4  0
  9 12  4  0
  9 19  4  0
 10 12  4  0
 10 22  4  0
 11 20  4  0
 11 21  4  0
 12 23  1  0
 13 20  4  0
 13 29  4  0
 14 17  4  0
 14 28  4  0
 15 25  2  0
 16 27  4  0
 17 18  4  0
 20 27  1  0
 24 27  4  0
 26 28  4  0
M  END
$$$$

 Created by Python create_sdf_string function

 29 33  0  0  0  0  0  0  0  0999 V2000
    8.8270   -7.0288   18.4251 C   0  0  0  0  0  0  0  0  0  0  0  0
    9.1576   -4.6236   15.8860 O   0  0  0  0  0  0  0  0  0  0  0  0
    9.1509   -5.9108   17.7177 C   0  0  0  0  0  0  0  0  0  0  0  0
    3.6373   -9.5349   16.0582 N   0  0  0  0  0  0  0  0  0  0  0  0
    9.9275   -4.8001   18.0438 N   0  0  0  0  0  0  0  0  0  0  0  0
    8.5908   -5.7425   16.4412 C   0  0  0  0  0  0  0  0  0  0  0  0
   10.5993   -4.8981   21.6068 C   0  0  0  0  0  0  0  0  0  0  0  0
   10.4258   -3.0106   23.0998 C   0  0  0  0  0  0  0  0  0  0  0  0
   10.2148   -3.4364   25.4200 C   0  0  0  0  0  0  0  0  0  0  0  0
    9.7853   -1.1840   24.4927 C   0  0  0  0  0  0  0  0  0  0  0  0
    5.0276   -8.5227   17.5352 C   0  0  0  0  0  0  0  0  0  0  0  0
    9.8187   -2.0895   25.5800 C   0  0  0  0  0  0  0  0  0  0  0  0
    5.6473   -8.7216   15.3158 C   0  0  0  0  0  0  0  0  0  0  0  0
   10.7581   -3.1233   19.4720 N   0  0  0  0  0  0  0  0  0  0  0  0
    9.9571   -4.0573   16.8866 C   0  0  0  0  0  0  0  0  0  0  0  0
    7.6213   -6.5618   16.0087 C   0  0  0  0  0  0  0  0  0  0  0  0
   10.8583   -2.6527   20.7222 C   0  0  0  0  0  0  0  0  0  0  0  0
   10.6412   -3.5089   21.7936 C   0  0  0  0  0  0  0  0  0  0  0  0
   10.4972   -3.8968   24.1589 C   0  0  0  0  0  0  0  0  0  0  0  0
    5.9260   -8.2736   16.5517 C   0  0  0  0  0  0  0  0  0  0  0  0
    3.8816   -9.1166   17.2493 C   0  0  0  0  0  0  0  0  0  0  0  0
   10.1297   -1.6575   23.2324 C   0  0  0  0  0  0  0  0  0  0  0  0
    9.4684   -1.6929   26.7263 F   0  0  0  0  0  0  0  0  0  0  0  0
    7.7963   -7.7906   17.9837 C   0  0  0  0  0  0  0  0  0  0  0  0
   10.5884   -3.0725   16.7902 O   0  0  0  0  0  0  0  0  0  0  0  0
   10.4323   -5.3494   20.3516 C   0  0  0  0  0  0  0  0  0  0  0  0
    7.1156   -7.5454   16.8218 C   0  0  0  0  0  0  0  0  0  0  0  0
   10.3885   -4.4388   19.2773 C   0  0  0  0  0  0  0  0  0  0  0  0
    4.5160   -9.3822   15.0841 C   0  0  0  0  0  0  0  0  0  0  0  0
  1  3  4  0
  1 24  4  0
  2  6  4  0
  2 15  4  0
  3  5  4  0
  3  6  4  0
  4 21  4  0
  4 29  4  0
  5 15  4  0
  5 28  1  0
  6 16  4  0
  7 18  4  0
  7 26  4  0
  8 18  1  0
  8 19  4  0
  8 22  4  0
  9 12  4  0
  9 19  4  0
 10 12  4  0
 10 22  4  0
 11 20  4  0
 11 21  4  0
 12 23  1  0
 13 20  4  0
 13 29  4  0
 14 17  4  0
 14 28  4  0
 15 25  2  0
 16 27  4  0
 17 18  4  0
 20 27  1  0
 24 27  4  0
 26 28  4  0
M  END
$$$$

 Created by Python create_sdf_string function

 29 33  0  0  0  0  0  0  0  0999 V2000
    8.8270   -7.0288   18.4251 C   0  0  0  0  0  0  0  0  0  0  0  0
    9.1576   -4.6236   15.8860 O   0  0  0  0  0  0  0  0  0  0  0  0
    9.1509   -5.9108   17.7177 C   0  0  0  0  0  0  0  0  0  0  0  0
    3.6373   -9.5349   16.0582 N   0  0  0  0  0  0  0  0  0  0  0  0
    9.9275   -4.8001   18.0438 N   0  0  0  0  0  0  0  0  0  0  0  0
    8.5908   -5.7425   16.4412 C   0  0  0  0  0  0  0  0  0  0  0  0
   10.5993   -4.8981   21.6068 C   0  0  0  0  0  0  0  0  0  0  0  0
   10.4258   -3.0106   23.0998 C   0  0  0  0  0  0  0  0  0  0  0  0
   10.2148   -3.4364   25.4200 C   0  0  0  0  0  0  0  0  0  0  0  0
    9.7853   -1.1840   24.4927 C   0  0  0  0  0  0  0  0  0  0  0  0
    5.0276   -8.5227   17.5352 C   0  0  0  0  0  0  0  0  0  0  0  0
    9.8187   -2.0895   25.5800 C   0  0  0  0  0  0  0  0  0  0  0  0
    5.6473   -8.7216   15.3158 C   0  0  0  0  0  0  0  0  0  0  0  0
   10.7581   -3.1233   19.4720 N   0  0  0  0  0  0  0  0  0  0  0  0
    9.9571   -4.0573   16.8866 C   0  0  0  0  0  0  0  0  0  0  0  0
    7.6213   -6.5618   16.0087 C   0  0  0  0  0  0  0  0  0  0  0  0
   10.8583   -2.6527   20.7222 C   0  0  0  0  0  0  0  0  0  0  0  0
   10.6412   -3.5089   21.7936 C   0  0  0  0  0  0  0  0  0  0  0  0
   10.4972   -3.8968   24.1589 C   0  0  0  0  0  0  0  0  0  0  0  0
    5.9260   -8.2736   16.5517 C   0  0  0  0  0  0  0  0  0  0  0  0
    3.8816   -9.1166   17.2493 C   0  0  0  0  0  0  0  0  0  0  0  0
   10.1297   -1.6575   23.2324 C   0  0  0  0  0  0  0  0  0  0  0  0
    9.4684   -1.6929   26.7263 F   0  0  0  0  0  0  0  0  0  0  0  0
    7.7963   -7.7906   17.9837 C   0  0  0  0  0  0  0  0  0  0  0  0
   10.5884   -3.0725   16.7902 O   0  0  0  0  0  0  0  0  0  0  0  0
   10.4323   -5.3494   20.3516 C   0  0  0  0  0  0  0  0  0  0  0  0
    7.1156   -7.5454   16.8218 C   0  0  0  0  0  0  0  0  0  0  0  0
   10.3885   -4.4388   19.2773 C   0  0  0  0  0  0  0  0  0  0  0  0
    4.5160   -9.3822   15.0841 C   0  0  0  0  0  0  0  0  0  0  0  0
  1  3  4  0
  1 24  4  0
  2  6  4  0
  2 15  4  0
  3  5  4  0
  3  6  4  0
  4 21  4  0
  4 29  4  0
  5 15  4  0
  5 28  1  0
  6 16  4  0
  7 18  4  0
  7 26  4  0
  8 18  1  0
  8 19  4  0
  8 22  4  0
  9 12  4  0
  9 19  4  0
 10 12  4  0
 10 22  4  0
 11 20  4  0
 11 21  4  0
 12 23  1  0
 13 20  4  0
 13 29  4  0
 14 17  4  0
 14 28  4  0
 15 25  2  0
 16 27  4  0
 17 18  4  0
 20 27  1  0
 24 27  4  0
 26 28  4  0
M  END
$$$$

 Created by Python create_sdf_string function

 29 33  0  0  0  0  0  0  0  0999 V2000
    8.8270   -7.0288   18.4251 C   0  0  0  0  0  0  0  0  0  0  0  0
    9.1576   -4.6236   15.8860 O   0  0  0  0  0  0  0  0  0  0  0  0
    9.1509   -5.9108   17.7177 C   0  0  0  0  0  0  0  0  0  0  0  0
    3.6373   -9.5349   16.0582 N   0  0  0  0  0  0  0  0  0  0  0  0
    9.9275   -4.8001   18.0438 N   0  0  0  0  0  0  0  0  0  0  0  0
    8.5908   -5.7425   16.4412 C   0  0  0  0  0  0  0  0  0  0  0  0
   10.5993   -4.8981   21.6068 C   0  0  0  0  0  0  0  0  0  0  0  0
   10.4258   -3.0106   23.0998 C   0  0  0  0  0  0  0  0  0  0  0  0
   10.2148   -3.4364   25.4200 C   0  0  0  0  0  0  0  0  0  0  0  0
    9.7853   -1.1840   24.4927 C   0  0  0  0  0  0  0  0  0  0  0  0
    5.0276   -8.5227   17.5352 C   0  0  0  0  0  0  0  0  0  0  0  0
    9.8187   -2.0895   25.5800 C   0  0  0  0  0  0  0  0  0  0  0  0
    5.6473   -8.7216   15.3158 C   0  0  0  0  0  0  0  0  0  0  0  0
   10.7581   -3.1233   19.4720 N   0  0  0  0  0  0  0  0  0  0  0  0
    9.9571   -4.0573   16.8866 C   0  0  0  0  0  0  0  0  0  0  0  0
    7.6213   -6.5618   16.0087 C   0  0  0  0  0  0  0  0  0  0  0  0
   10.8583   -2.6527   20.7222 C   0  0  0  0  0  0  0  0  0  0  0  0
   10.6412   -3.5089   21.7936 C   0  0  0  0  0  0  0  0  0  0  0  0
   10.4972   -3.8968   24.1589 C   0  0  0  0  0  0  0  0  0  0  0  0
    5.9260   -8.2736   16.5517 C   0  0  0  0  0  0  0  0  0  0  0  0
    3.8816   -9.1166   17.2493 C   0  0  0  0  0  0  0  0  0  0  0  0
   10.1297   -1.6575   23.2324 C   0  0  0  0  0  0  0  0  0  0  0  0
    9.4684   -1.6929   26.7263 F   0  0  0  0  0  0  0  0  0  0  0  0
    7.7963   -7.7906   17.9837 C   0  0  0  0  0  0  0  0  0  0  0  0
   10.5884   -3.0725   16.7902 O   0  0  0  0  0  0  0  0  0  0  0  0
   10.4323   -5.3494   20.3516 C   0  0  0  0  0  0  0  0  0  0  0  0
    7.1156   -7.5454   16.8218 C   0  0  0  0  0  0  0  0  0  0  0  0
   10.3885   -4.4388   19.2773 C   0  0  0  0  0  0  0  0  0  0  0  0
    4.5160   -9.3822   15.0841 C   0  0  0  0  0  0  0  0  0  0  0  0
  1  3  4  0
  1 24  4  0
  2  6  4  0
  2 15  4  0
  3  5  4  0
  3  6  4  0
  4 21  4  0
  4 29  4  0
  5 15  4  0
  5 28  1  0
  6 16  4  0
  7 18  4  0
  7 26  4  0
  8 18  1  0
  8 19  4  0
  8 22  4  0
  9 12  4  0
  9 19  4  0
 10 12  4  0
 10 22  4  0
 11 20  4  0
 11 21  4  0
 12 23  1  0
 13 20  4  0
 13 29  4  0
 14 17  4  0
 14 28  4  0
 15 25  2  0
 16 27  4  0
 17 18  4  0
 20 27  1  0
 24 27  4  0
 26 28  4  0
M  END
$$$$

 Created by Python create_sdf_string function

 29 33  0  0  0  0  0  0  0  0999 V2000
    8.8270   -7.0288   18.4251 C   0  0  0  0  0  0  0  0  0  0  0  0
    9.1576   -4.6236   15.8860 O   0  0  0  0  0  0  0  0  0  0  0  0
    9.1509   -5.9108   17.7177 C   0  0  0  0  0  0  0  0  0  0  0  0
    3.6373   -9.5349   16.0582 N   0  0  0  0  0  0  0  0  0  0  0  0
    9.9275   -4.8001   18.0438 N   0  0  0  0  0  0  0  0  0  0  0  0
    8.5908   -5.7425   16.4412 C   0  0  0  0  0  0  0  0  0  0  0  0
   10.5993   -4.8981   21.6068 C   0  0  0  0  0  0  0  0  0  0  0  0
   10.4258   -3.0106   23.0998 C   0  0  0  0  0  0  0  0  0  0  0  0
   10.2148   -3.4364   25.4200 C   0  0  0  0  0  0  0  0  0  0  0  0
    9.7853   -1.1840   24.4927 C   0  0  0  0  0  0  0  0  0  0  0  0
    5.0276   -8.5227   17.5352 C   0  0  0  0  0  0  0  0  0  0  0  0
    9.8187   -2.0895   25.5800 C   0  0  0  0  0  0  0  0  0  0  0  0
    5.6473   -8.7216   15.3158 C   0  0  0  0  0  0  0  0  0  0  0  0
   10.7581   -3.1233   19.4720 N   0  0  0  0  0  0  0  0  0  0  0  0
    9.9571   -4.0573   16.8866 C   0  0  0  0  0  0  0  0  0  0  0  0
    7.6213   -6.5618   16.0087 C   0  0  0  0  0  0  0  0  0  0  0  0
   10.8583   -2.6527   20.7222 C   0  0  0  0  0  0  0  0  0  0  0  0
   10.6412   -3.5089   21.7936 C   0  0  0  0  0  0  0  0  0  0  0  0
   10.4972   -3.8968   24.1589 C   0  0  0  0  0  0  0  0  0  0  0  0
    5.9260   -8.2736   16.5517 C   0  0  0  0  0  0  0  0  0  0  0  0
    3.8816   -9.1166   17.2493 C   0  0  0  0  0  0  0  0  0  0  0  0
   10.1297   -1.6575   23.2324 C   0  0  0  0  0  0  0  0  0  0  0  0
    9.4684   -1.6929   26.7263 F   0  0  0  0  0  0  0  0  0  0  0  0
    7.7963   -7.7906   17.9837 C   0  0  0  0  0  0  0  0  0  0  0  0
   10.5884   -3.0725   16.7902 O   0  0  0  0  0  0  0  0  0  0  0  0
   10.4323   -5.3494   20.3516 C   0  0  0  0  0  0  0  0  0  0  0  0
    7.1156   -7.5454   16.8218 C   0  0  0  0  0  0  0  0  0  0  0  0
   10.3885   -4.4388   19.2773 C   0  0  0  0  0  0  0  0  0  0  0  0
    4.5160   -9.3822   15.0841 C   0  0  0  0  0  0  0  0  0  0  0  0
  1  3  4  0
  1 24  4  0
  2  6  4  0
  2 15  4  0
  3  5  4  0
  3  6  4  0
  4 21  4  0
  4 29  4  0
  5 15  4  0
  5 28  1  0
  6 16  4  0
  7 18  4  0
  7 26  4  0
  8 18  1  0
  8 19  4  0
  8 22  4  0
  9 12  4  0
  9 19  4  0
 10 12  4  0
 10 22  4  0
 11 20  4  0
 11 21  4  0
 12 23  1  0
 13 20  4  0
 13 29  4  0
 14 17  4  0
 14 28  4  0
 15 25  2  0
 16 27  4  0
 17 18  4  0
 20 27  1  0
 24 27  4  0
 26 28  4  0
M  END
$$$$

 Created by Python create_sdf_string function

 29 33  0  0  0  0  0  0  0  0999 V2000
    8.8270   -7.0288   18.4251 C   0  0  0  0  0  0  0  0  0  0  0  0
    9.1576   -4.6236   15.8860 O   0  0  0  0  0  0  0  0  0  0  0  0
    9.1509   -5.9108   17.7177 C   0  0  0  0  0  0  0  0  0  0  0  0
    3.6373   -9.5349   16.0582 N   0  0  0  0  0  0  0  0  0  0  0  0
    9.9275   -4.8001   18.0438 N   0  0  0  0  0  0  0  0  0  0  0  0
    8.5908   -5.7425   16.4412 C   0  0  0  0  0  0  0  0  0  0  0  0
   10.5993   -4.8981   21.6068 C   0  0  0  0  0  0  0  0  0  0  0  0
   10.4258   -3.0106   23.0998 C   0  0  0  0  0  0  0  0  0  0  0  0
   10.2148   -3.4364   25.4200 C   0  0  0  0  0  0  0  0  0  0  0  0
    9.7853   -1.1840   24.4927 C   0  0  0  0  0  0  0  0  0  0  0  0
    5.0276   -8.5227   17.5352 C   0  0  0  0  0  0  0  0  0  0  0  0
    9.8187   -2.0895   25.5800 C   0  0  0  0  0  0  0  0  0  0  0  0
    5.6473   -8.7216   15.3158 C   0  0  0  0  0  0  0  0  0  0  0  0
   10.7581   -3.1233   19.4720 N   0  0  0  0  0  0  0  0  0  0  0  0
    9.9571   -4.0573   16.8866 C   0  0  0  0  0  0  0  0  0  0  0  0
    7.6213   -6.5618   16.0087 C   0  0  0  0  0  0  0  0  0  0  0  0
   10.8583   -2.6527   20.7222 C   0  0  0  0  0  0  0  0  0  0  0  0
   10.6412   -3.5089   21.7936 C   0  0  0  0  0  0  0  0  0  0  0  0
   10.4972   -3.8968   24.1589 C   0  0  0  0  0  0  0  0  0  0  0  0
    5.9260   -8.2736   16.5517 C   0  0  0  0  0  0  0  0  0  0  0  0
    3.8816   -9.1166   17.2493 C   0  0  0  0  0  0  0  0  0  0  0  0
   10.1297   -1.6575   23.2324 C   0  0  0  0  0  0  0  0  0  0  0  0
    9.4684   -1.6929   26.7263 F   0  0  0  0  0  0  0  0  0  0  0  0
    7.7963   -7.7906   17.9837 C   0  0  0  0  0  0  0  0  0  0  0  0
   10.5884   -3.0725   16.7902 O   0  0  0  0  0  0  0  0  0  0  0  0
   10.4323   -5.3494   20.3516 C   0  0  0  0  0  0  0  0  0  0  0  0
    7.1156   -7.5454   16.8218 C   0  0  0  0  0  0  0  0  0  0  0  0
   10.3885   -4.4388   19.2773 C   0  0  0  0  0  0  0  0  0  0  0  0
    4.5160   -9.3822   15.0841 C   0  0  0  0  0  0  0  0  0  0  0  0
  1  3  4  0
  1 24  4  0
  2  6  4  0
  2 15  4  0
  3  5  4  0
  3  6  4  0
  4 21  4  0
  4 29  4  0
  5 15  4  0
  5 28  1  0
  6 16  4  0
  7 18  4  0
  7 26  4  0
  8 18  1  0
  8 19  4  0
  8 22  4  0
  9 12  4  0
  9 19  4  0
 10 12  4  0
 10 22  4  0
 11 20  4  0
 11 21  4  0
 12 23  1  0
 13 20  4  0
 13 29  4  0
 14 17  4  0
 14 28  4  0
 15 25  2  0
 16 27  4  0
 17 18  4  0
 20 27  1  0
 24 27  4  0
 26 28  4  0
M  END
$$$$

 Created by Python create_sdf_string function

 29 33  0  0  0  0  0  0  0  0999 V2000
    8.8270   -7.0288   18.4251 C   0  0  0  0  0  0  0  0  0  0  0  0
    9.1576   -4.6236   15.8860 O   0  0  0  0  0  0  0  0  0  0  0  0
    9.1509   -5.9108   17.7177 C   0  0  0  0  0  0  0  0  0  0  0  0
    3.6373   -9.5349   16.0582 N   0  0  0  0  0  0  0  0  0  0  0  0
    9.9275   -4.8001   18.0438 N   0  0  0  0  0  0  0  0  0  0  0  0
    8.5908   -5.7425   16.4412 C   0  0  0  0  0  0  0  0  0  0  0  0
   10.5993   -4.8981   21.6068 C   0  0  0  0  0  0  0  0  0  0  0  0
   10.4258   -3.0106   23.0998 C   0  0  0  0  0  0  0  0  0  0  0  0
   10.2148   -3.4364   25.4200 C   0  0  0  0  0  0  0  0  0  0  0  0
    9.7853   -1.1840   24.4927 C   0  0  0  0  0  0  0  0  0  0  0  0
    5.0276   -8.5227   17.5352 C   0  0  0  0  0  0  0  0  0  0  0  0
    9.8187   -2.0895   25.5800 C   0  0  0  0  0  0  0  0  0  0  0  0
    5.6473   -8.7216   15.3158 C   0  0  0  0  0  0  0  0  0  0  0  0
   10.7581   -3.1233   19.4720 N   0  0  0  0  0  0  0  0  0  0  0  0
    9.9571   -4.0573   16.8866 C   0  0  0  0  0  0  0  0  0  0  0  0
    7.6213   -6.5618   16.0087 C   0  0  0  0  0  0  0  0  0  0  0  0
   10.8583   -2.6527   20.7222 C   0  0  0  0  0  0  0  0  0  0  0  0
   10.6412   -3.5089   21.7936 C   0  0  0  0  0  0  0  0  0  0  0  0
   10.4972   -3.8968   24.1589 C   0  0  0  0  0  0  0  0  0  0  0  0
    5.9260   -8.2736   16.5517 C   0  0  0  0  0  0  0  0  0  0  0  0
    3.8816   -9.1166   17.2493 C   0  0  0  0  0  0  0  0  0  0  0  0
   10.1297   -1.6575   23.2324 C   0  0  0  0  0  0  0  0  0  0  0  0
    9.4684   -1.6929   26.7263 F   0  0  0  0  0  0  0  0  0  0  0  0
    7.7963   -7.7906   17.9837 C   0  0  0  0  0  0  0  0  0  0  0  0
   10.5884   -3.0725   16.7902 O   0  0  0  0  0  0  0  0  0  0  0  0
   10.4323   -5.3494   20.3516 C   0  0  0  0  0  0  0  0  0  0  0  0
    7.1156   -7.5454   16.8218 C   0  0  0  0  0  0  0  0  0  0  0  0
   10.3885   -4.4388   19.2773 C   0  0  0  0  0  0  0  0  0  0  0  0
    4.5160   -9.3822   15.0841 C   0  0  0  0  0  0  0  0  0  0  0  0
  1  3  4  0
  1 24  4  0
  2  6  4  0
  2 15  4  0
  3  5  4  0
  3  6  4  0
  4 21  4  0
  4 29  4  0
  5 15  4  0
  5 28  1  0
  6 16  4  0
  7 18  4  0
  7 26  4  0
  8 18  1  0
  8 19  4  0
  8 22  4  0
  9 12  4  0
  9 19  4  0
 10 12  4  0
 10 22  4  0
 11 20  4  0
 11 21  4  0
 12 23  1  0
 13 20  4  0
 13 29  4  0
 14 17  4  0
 14 28  4  0
 15 25  2  0
 16 27  4  0
 17 18  4  0
 20 27  1  0
 24 27  4  0
 26 28  4  0
M  END
$$$$

 Created by Python create_sdf_string function

 29 33  0  0  0  0  0  0  0  0999 V2000
    8.8270   -7.0288   18.4251 C   0  0  0  0  0  0  0  0  0  0  0  0
    9.1576   -4.6236   15.8860 O   0  0  0  0  0  0  0  0  0  0  0  0
    9.1509   -5.9108   17.7177 C   0  0  0  0  0  0  0  0  0  0  0  0
    3.6373   -9.5349   16.0582 N   0  0  0  0  0  0  0  0  0  0  0  0
    9.9275   -4.8001   18.0438 N   0  0  0  0  0  0  0  0  0  0  0  0
    8.5908   -5.7425   16.4412 C   0  0  0  0  0  0  0  0  0  0  0  0
   10.5993   -4.8981   21.6068 C   0  0  0  0  0  0  0  0  0  0  0  0
   10.4258   -3.0106   23.0998 C   0  0  0  0  0  0  0  0  0  0  0  0
   10.2148   -3.4364   25.4200 C   0  0  0  0  0  0  0  0  0  0  0  0
    9.7853   -1.1840   24.4927 C   0  0  0  0  0  0  0  0  0  0  0  0
    5.0276   -8.5227   17.5352 C   0  0  0  0  0  0  0  0  0  0  0  0
    9.8187   -2.0895   25.5800 C   0  0  0  0  0  0  0  0  0  0  0  0
    5.6473   -8.7216   15.3158 C   0  0  0  0  0  0  0  0  0  0  0  0
   10.7581   -3.1233   19.4720 N   0  0  0  0  0  0  0  0  0  0  0  0
    9.9571   -4.0573   16.8866 C   0  0  0  0  0  0  0  0  0  0  0  0
    7.6213   -6.5618   16.0087 C   0  0  0  0  0  0  0  0  0  0  0  0
   10.8583   -2.6527   20.7222 C   0  0  0  0  0  0  0  0  0  0  0  0
   10.6412   -3.5089   21.7936 C   0  0  0  0  0  0  0  0  0  0  0  0
   10.4972   -3.8968   24.1589 C   0  0  0  0  0  0  0  0  0  0  0  0
    5.9260   -8.2736   16.5517 C   0  0  0  0  0  0  0  0  0  0  0  0
    3.8816   -9.1166   17.2493 C   0  0  0  0  0  0  0  0  0  0  0  0
   10.1297   -1.6575   23.2324 C   0  0  0  0  0  0  0  0  0  0  0  0
    9.4684   -1.6929   26.7263 F   0  0  0  0  0  0  0  0  0  0  0  0
    7.7963   -7.7906   17.9837 C   0  0  0  0  0  0  0  0  0  0  0  0
   10.5884   -3.0725   16.7902 O   0  0  0  0  0  0  0  0  0  0  0  0
   10.4323   -5.3494   20.3516 C   0  0  0  0  0  0  0  0  0  0  0  0
    7.1156   -7.5454   16.8218 C   0  0  0  0  0  0  0  0  0  0  0  0
   10.3885   -4.4388   19.2773 C   0  0  0  0  0  0  0  0  0  0  0  0
    4.5160   -9.3822   15.0841 C   0  0  0  0  0  0  0  0  0  0  0  0
  1  3  4  0
  1 24  4  0
  2  6  4  0
  2 15  4  0
  3  5  4  0
  3  6  4  0
  4 21  4  0
  4 29  4  0
  5 15  4  0
  5 28  1  0
  6 16  4  0
  7 18  4  0
  7 26  4  0
  8 18  1  0
  8 19  4  0
  8 22  4  0
  9 12  4  0
  9 19  4  0
 10 12  4  0
 10 22  4  0
 11 20  4  0
 11 21  4  0
 12 23  1  0
 13 20  4  0
 13 29  4  0
 14 17  4  0
 14 28  4  0
 15 25  2  0
 16 27  4  0
 17 18  4  0
 20 27  1  0
 24 27  4  0
 26 28  4  0
M  END
$$$$

 Created by Python create_sdf_string function

 29 33  0  0  0  0  0  0  0  0999 V2000
    8.8270   -7.0288   18.4251 C   0  0  0  0  0  0  0  0  0  0  0  0
    9.1576   -4.6236   15.8860 O   0  0  0  0  0  0  0  0  0  0  0  0
    9.1509   -5.9108   17.7177 C   0  0  0  0  0  0  0  0  0  0  0  0
    3.6373   -9.5349   16.0582 N   0  0  0  0  0  0  0  0  0  0  0  0
    9.9275   -4.8001   18.0438 N   0  0  0  0  0  0  0  0  0  0  0  0
    8.5908   -5.7425   16.4412 C   0  0  0  0  0  0  0  0  0  0  0  0
   10.5993   -4.8981   21.6068 C   0  0  0  0  0  0  0  0  0  0  0  0
   10.4258   -3.0106   23.0998 C   0  0  0  0  0  0  0  0  0  0  0  0
   10.2148   -3.4364   25.4200 C   0  0  0  0  0  0  0  0  0  0  0  0
    9.7853   -1.1840   24.4927 C   0  0  0  0  0  0  0  0  0  0  0  0
    5.0276   -8.5227   17.5352 C   0  0  0  0  0  0  0  0  0  0  0  0
    9.8187   -2.0895   25.5800 C   0  0  0  0  0  0  0  0  0  0  0  0
    5.6473   -8.7216   15.3158 C   0  0  0  0  0  0  0  0  0  0  0  0
   10.7581   -3.1233   19.4720 N   0  0  0  0  0  0  0  0  0  0  0  0
    9.9571   -4.0573   16.8866 C   0  0  0  0  0  0  0  0  0  0  0  0
    7.6213   -6.5618   16.0087 C   0  0  0  0  0  0  0  0  0  0  0  0
   10.8583   -2.6527   20.7222 C   0  0  0  0  0  0  0  0  0  0  0  0
   10.6412   -3.5089   21.7936 C   0  0  0  0  0  0  0  0  0  0  0  0
   10.4972   -3.8968   24.1589 C   0  0  0  0  0  0  0  0  0  0  0  0
    5.9260   -8.2736   16.5517 C   0  0  0  0  0  0  0  0  0  0  0  0
    3.8816   -9.1166   17.2493 C   0  0  0  0  0  0  0  0  0  0  0  0
   10.1297   -1.6575   23.2324 C   0  0  0  0  0  0  0  0  0  0  0  0
    9.4684   -1.6929   26.7263 F   0  0  0  0  0  0  0  0  0  0  0  0
    7.7963   -7.7906   17.9837 C   0  0  0  0  0  0  0  0  0  0  0  0
   10.5884   -3.0725   16.7902 O   0  0  0  0  0  0  0  0  0  0  0  0
   10.4323   -5.3494   20.3516 C   0  0  0  0  0  0  0  0  0  0  0  0
    7.1156   -7.5454   16.8218 C   0  0  0  0  0  0  0  0  0  0  0  0
   10.3885   -4.4388   19.2773 C   0  0  0  0  0  0  0  0  0  0  0  0
    4.5160   -9.3822   15.0841 C   0  0  0  0  0  0  0  0  0  0  0  0
  1  3  4  0
  1 24  4  0
  2  6  4  0
  2 15  4  0
  3  5  4  0
  3  6  4  0
  4 21  4  0
  4 29  4  0
  5 15  4  0
  5 28  1  0
  6 16  4  0
  7 18  4  0
  7 26  4  0
  8 18  1  0
  8 19  4  0
  8 22  4  0
  9 12  4  0
  9 19  4  0
 10 12  4  0
 10 22  4  0
 11 20  4  0
 11 21  4  0
 12 23  1  0
 13 20  4  0
 13 29  4  0
 14 17  4  0
 14 28  4  0
 15 25  2  0
 16 27  4  0
 17 18  4  0
 20 27  1  0
 24 27  4  0
 26 28  4  0
M  END
$$$$

 Created by Python create_sdf_string function

 29 33  0  0  0  0  0  0  0  0999 V2000
    8.8270   -7.0288   18.4251 C   0  0  0  0  0  0  0  0  0  0  0  0
    9.1576   -4.6236   15.8860 O   0  0  0  0  0  0  0  0  0  0  0  0
    9.1509   -5.9108   17.7177 C   0  0  0  0  0  0  0  0  0  0  0  0
    3.6373   -9.5349   16.0582 N   0  0  0  0  0  0  0  0  0  0  0  0
    9.9275   -4.8001   18.0438 N   0  0  0  0  0  0  0  0  0  0  0  0
    8.5908   -5.7425   16.4412 C   0  0  0  0  0  0  0  0  0  0  0  0
   10.5993   -4.8981   21.6068 C   0  0  0  0  0  0  0  0  0  0  0  0
   10.4258   -3.0106   23.0998 C   0  0  0  0  0  0  0  0  0  0  0  0
   10.2148   -3.4364   25.4200 C   0  0  0  0  0  0  0  0  0  0  0  0
    9.7853   -1.1840   24.4927 C   0  0  0  0  0  0  0  0  0  0  0  0
    5.0276   -8.5227   17.5352 C   0  0  0  0  0  0  0  0  0  0  0  0
    9.8187   -2.0895   25.5800 C   0  0  0  0  0  0  0  0  0  0  0  0
    5.6473   -8.7216   15.3158 C   0  0  0  0  0  0  0  0  0  0  0  0
   10.7581   -3.1233   19.4720 N   0  0  0  0  0  0  0  0  0  0  0  0
    9.9571   -4.0573   16.8866 C   0  0  0  0  0  0  0  0  0  0  0  0
    7.6213   -6.5618   16.0087 C   0  0  0  0  0  0  0  0  0  0  0  0
   10.8583   -2.6527   20.7222 C   0  0  0  0  0  0  0  0  0  0  0  0
   10.6412   -3.5089   21.7936 C   0  0  0  0  0  0  0  0  0  0  0  0
   10.4972   -3.8968   24.1589 C   0  0  0  0  0  0  0  0  0  0  0  0
    5.9260   -8.2736   16.5517 C   0  0  0  0  0  0  0  0  0  0  0  0
    3.8816   -9.1166   17.2493 C   0  0  0  0  0  0  0  0  0  0  0  0
   10.1297   -1.6575   23.2324 C   0  0  0  0  0  0  0  0  0  0  0  0
    9.4684   -1.6929   26.7263 F   0  0  0  0  0  0  0  0  0  0  0  0
    7.7963   -7.7906   17.9837 C   0  0  0  0  0  0  0  0  0  0  0  0
   10.5884   -3.0725   16.7902 O   0  0  0  0  0  0  0  0  0  0  0  0
   10.4323   -5.3494   20.3516 C   0  0  0  0  0  0  0  0  0  0  0  0
    7.1156   -7.5454   16.8218 C   0  0  0  0  0  0  0  0  0  0  0  0
   10.3885   -4.4388   19.2773 C   0  0  0  0  0  0  0  0  0  0  0  0
    4.5160   -9.3822   15.0841 C   0  0  0  0  0  0  0  0  0  0  0  0
  1  3  4  0
  1 24  4  0
  2  6  4  0
  2 15  4  0
  3  5  4  0
  3  6  4  0
  4 21  4  0
  4 29  4  0
  5 15  4  0
  5 28  1  0
  6 16  4  0
  7 18  4  0
  7 26  4  0
  8 18  1  0
  8 19  4  0
  8 22  4  0
  9 12  4  0
  9 19  4  0
 10 12  4  0
 10 22  4  0
 11 20  4  0
 11 21  4  0
 12 23  1  0
 13 20  4  0
 13 29  4  0
 14 17  4  0
 14 28  4  0
 15 25  2  0
 16 27  4  0
 17 18  4  0
 20 27  1  0
 24 27  4  0
 26 28  4  0
M  END
$$$$

 Created by Python create_sdf_string function

 29 33  0  0  0  0  0  0  0  0999 V2000
    8.8270   -7.0288   18.4251 C   0  0  0  0  0  0  0  0  0  0  0  0
    9.1576   -4.6236   15.8860 O   0  0  0  0  0  0  0  0  0  0  0  0
    9.1509   -5.9108   17.7177 C   0  0  0  0  0  0  0  0  0  0  0  0
    3.6373   -9.5349   16.0582 N   0  0  0  0  0  0  0  0  0  0  0  0
    9.9275   -4.8001   18.0438 N   0  0  0  0  0  0  0  0  0  0  0  0
    8.5908   -5.7425   16.4412 C   0  0  0  0  0  0  0  0  0  0  0  0
   10.5993   -4.8981   21.6068 C   0  0  0  0  0  0  0  0  0  0  0  0
   10.4258   -3.0106   23.0998 C   0  0  0  0  0  0  0  0  0  0  0  0
   10.2148   -3.4364   25.4200 C   0  0  0  0  0  0  0  0  0  0  0  0
    9.7853   -1.1840   24.4927 C   0  0  0  0  0  0  0  0  0  0  0  0
    5.0276   -8.5227   17.5352 C   0  0  0  0  0  0  0  0  0  0  0  0
    9.8187   -2.0895   25.5800 C   0  0  0  0  0  0  0  0  0  0  0  0
    5.6473   -8.7216   15.3158 C   0  0  0  0  0  0  0  0  0  0  0  0
   10.7581   -3.1233   19.4720 N   0  0  0  0  0  0  0  0  0  0  0  0
    9.9571   -4.0573   16.8866 C   0  0  0  0  0  0  0  0  0  0  0  0
    7.6213   -6.5618   16.0087 C   0  0  0  0  0  0  0  0  0  0  0  0
   10.8583   -2.6527   20.7222 C   0  0  0  0  0  0  0  0  0  0  0  0
   10.6412   -3.5089   21.7936 C   0  0  0  0  0  0  0  0  0  0  0  0
   10.4972   -3.8968   24.1589 C   0  0  0  0  0  0  0  0  0  0  0  0
    5.9260   -8.2736   16.5517 C   0  0  0  0  0  0  0  0  0  0  0  0
    3.8816   -9.1166   17.2493 C   0  0  0  0  0  0  0  0  0  0  0  0
   10.1297   -1.6575   23.2324 C   0  0  0  0  0  0  0  0  0  0  0  0
    9.4684   -1.6929   26.7263 F   0  0  0  0  0  0  0  0  0  0  0  0
    7.7963   -7.7906   17.9837 C   0  0  0  0  0  0  0  0  0  0  0  0
   10.5884   -3.0725   16.7902 O   0  0  0  0  0  0  0  0  0  0  0  0
   10.4323   -5.3494   20.3516 C   0  0  0  0  0  0  0  0  0  0  0  0
    7.1156   -7.5454   16.8218 C   0  0  0  0  0  0  0  0  0  0  0  0
   10.3885   -4.4388   19.2773 C   0  0  0  0  0  0  0  0  0  0  0  0
    4.5160   -9.3822   15.0841 C   0  0  0  0  0  0  0  0  0  0  0  0
  1  3  4  0
  1 24  4  0
  2  6  4  0
  2 15  4  0
  3  5  4  0
  3  6  4  0
  4 21  4  0
  4 29  4  0
  5 15  4  0
  5 28  1  0
  6 16  4  0
  7 18  4  0
  7 26  4  0
  8 18  1  0
  8 19  4  0
  8 22  4  0
  9 12  4  0
  9 19  4  0
 10 12  4  0
 10 22  4  0
 11 20  4  0
 11 21  4  0
 12 23  1  0
 13 20  4  0
 13 29  4  0
 14 17  4  0
 14 28  4  0
 15 25  2  0
 16 27  4  0
 17 18  4  0
 20 27  1  0
 24 27  4  0
 26 28  4  0
M  END
$$$$

 Created by Python create_sdf_string function

 29 33  0  0  0  0  0  0  0  0999 V2000
    8.8270   -7.0288   18.4251 C   0  0  0  0  0  0  0  0  0  0  0  0
    9.1576   -4.6236   15.8860 O   0  0  0  0  0  0  0  0  0  0  0  0
    9.1509   -5.9108   17.7177 C   0  0  0  0  0  0  0  0  0  0  0  0
    3.6373   -9.5349   16.0582 N   0  0  0  0  0  0  0  0  0  0  0  0
    9.9275   -4.8001   18.0438 N   0  0  0  0  0  0  0  0  0  0  0  0
    8.5908   -5.7425   16.4412 C   0  0  0  0  0  0  0  0  0  0  0  0
   10.5993   -4.8981   21.6068 C   0  0  0  0  0  0  0  0  0  0  0  0
   10.4258   -3.0106   23.0998 C   0  0  0  0  0  0  0  0  0  0  0  0
   10.2148   -3.4364   25.4200 C   0  0  0  0  0  0  0  0  0  0  0  0
    9.7853   -1.1840   24.4927 C   0  0  0  0  0  0  0  0  0  0  0  0
    5.0276   -8.5227   17.5352 C   0  0  0  0  0  0  0  0  0  0  0  0
    9.8187   -2.0895   25.5800 C   0  0  0  0  0  0  0  0  0  0  0  0
    5.6473   -8.7216   15.3158 C   0  0  0  0  0  0  0  0  0  0  0  0
   10.7581   -3.1233   19.4720 N   0  0  0  0  0  0  0  0  0  0  0  0
    9.9571   -4.0573   16.8866 C   0  0  0  0  0  0  0  0  0  0  0  0
    7.6213   -6.5618   16.0087 C   0  0  0  0  0  0  0  0  0  0  0  0
   10.8583   -2.6527   20.7222 C   0  0  0  0  0  0  0  0  0  0  0  0
   10.6412   -3.5089   21.7936 C   0  0  0  0  0  0  0  0  0  0  0  0
   10.4972   -3.8968   24.1589 C   0  0  0  0  0  0  0  0  0  0  0  0
    5.9260   -8.2736   16.5517 C   0  0  0  0  0  0  0  0  0  0  0  0
    3.8816   -9.1166   17.2493 C   0  0  0  0  0  0  0  0  0  0  0  0
   10.1297   -1.6575   23.2324 C   0  0  0  0  0  0  0  0  0  0  0  0
    9.4684   -1.6929   26.7263 F   0  0  0  0  0  0  0  0  0  0  0  0
    7.7963   -7.7906   17.9837 C   0  0  0  0  0  0  0  0  0  0  0  0
   10.5884   -3.0725   16.7902 O   0  0  0  0  0  0  0  0  0  0  0  0
   10.4323   -5.3494   20.3516 C   0  0  0  0  0  0  0  0  0  0  0  0
    7.1156   -7.5454   16.8218 C   0  0  0  0  0  0  0  0  0  0  0  0
   10.3885   -4.4388   19.2773 C   0  0  0  0  0  0  0  0  0  0  0  0
    4.5160   -9.3822   15.0841 C   0  0  0  0  0  0  0  0  0  0  0  0
  1  3  4  0
  1 24  4  0
  2  6  4  0
  2 15  4  0
  3  5  4  0
  3  6  4  0
  4 21  4  0
  4 29  4  0
  5 15  4  0
  5 28  1  0
  6 16  4  0
  7 18  4  0
  7 26  4  0
  8 18  1  0
  8 19  4  0
  8 22  4  0
  9 12  4  0
  9 19  4  0
 10 12  4  0
 10 22  4  0
 11 20  4  0
 11 21  4  0
 12 23  1  0
 13 20  4  0
 13 29  4  0
 14 17  4  0
 14 28  4  0
 15 25  2  0
 16 27  4  0
 17 18  4  0
 20 27  1  0
 24 27  4  0
 26 28  4  0
M  END
$$$$

 Created by Python create_sdf_string function

 29 33  0  0  0  0  0  0  0  0999 V2000
    8.8270   -7.0288   18.4251 C   0  0  0  0  0  0  0  0  0  0  0  0
    9.1576   -4.6236   15.8860 O   0  0  0  0  0  0  0  0  0  0  0  0
    9.1509   -5.9108   17.7177 C   0  0  0  0  0  0  0  0  0  0  0  0
    3.6373   -9.5349   16.0582 N   0  0  0  0  0  0  0  0  0  0  0  0
    9.9275   -4.8001   18.0438 N   0  0  0  0  0  0  0  0  0  0  0  0
    8.5908   -5.7425   16.4412 C   0  0  0  0  0  0  0  0  0  0  0  0
   10.5993   -4.8981   21.6068 C   0  0  0  0  0  0  0  0  0  0  0  0
   10.4258   -3.0106   23.0998 C   0  0  0  0  0  0  0  0  0  0  0  0
   10.2148   -3.4364   25.4200 C   0  0  0  0  0  0  0  0  0  0  0  0
    9.7853   -1.1840   24.4927 C   0  0  0  0  0  0  0  0  0  0  0  0
    5.0276   -8.5227   17.5352 C   0  0  0  0  0  0  0  0  0  0  0  0
    9.8187   -2.0895   25.5800 C   0  0  0  0  0  0  0  0  0  0  0  0
    5.6473   -8.7216   15.3158 C   0  0  0  0  0  0  0  0  0  0  0  0
   10.7581   -3.1233   19.4720 N   0  0  0  0  0  0  0  0  0  0  0  0
    9.9571   -4.0573   16.8866 C   0  0  0  0  0  0  0  0  0  0  0  0
    7.6213   -6.5618   16.0087 C   0  0  0  0  0  0  0  0  0  0  0  0
   10.8583   -2.6527   20.7222 C   0  0  0  0  0  0  0  0  0  0  0  0
   10.6412   -3.5089   21.7936 C   0  0  0  0  0  0  0  0  0  0  0  0
   10.4972   -3.8968   24.1589 C   0  0  0  0  0  0  0  0  0  0  0  0
    5.9260   -8.2736   16.5517 C   0  0  0  0  0  0  0  0  0  0  0  0
    3.8816   -9.1166   17.2493 C   0  0  0  0  0  0  0  0  0  0  0  0
   10.1297   -1.6575   23.2324 C   0  0  0  0  0  0  0  0  0  0  0  0
    9.4684   -1.6929   26.7263 F   0  0  0  0  0  0  0  0  0  0  0  0
    7.7963   -7.7906   17.9837 C   0  0  0  0  0  0  0  0  0  0  0  0
   10.5884   -3.0725   16.7902 O   0  0  0  0  0  0  0  0  0  0  0  0
   10.4323   -5.3494   20.3516 C   0  0  0  0  0  0  0  0  0  0  0  0
    7.1156   -7.5454   16.8218 C   0  0  0  0  0  0  0  0  0  0  0  0
   10.3885   -4.4388   19.2773 C   0  0  0  0  0  0  0  0  0  0  0  0
    4.5160   -9.3822   15.0841 C   0  0  0  0  0  0  0  0  0  0  0  0
  1  3  4  0
  1 24  4  0
  2  6  4  0
  2 15  4  0
  3  5  4  0
  3  6  4  0
  4 21  4  0
  4 29  4  0
  5 15  4  0
  5 28  1  0
  6 16  4  0
  7 18  4  0
  7 26  4  0
  8 18  1  0
  8 19  4  0
  8 22  4  0
  9 12  4  0
  9 19  4  0
 10 12  4  0
 10 22  4  0
 11 20  4  0
 11 21  4  0
 12 23  1  0
 13 20  4  0
 13 29  4  0
 14 17  4  0
 14 28  4  0
 15 25  2  0
 16 27  4  0
 17 18  4  0
 20 27  1  0
 24 27  4  0
 26 28  4  0
M  END
$$$$

 Created by Python create_sdf_string function

 29 33  0  0  0  0  0  0  0  0999 V2000
    8.8270   -7.0288   18.4251 C   0  0  0  0  0  0  0  0  0  0  0  0
    9.1576   -4.6236   15.8860 O   0  0  0  0  0  0  0  0  0  0  0  0
    9.1509   -5.9108   17.7177 C   0  0  0  0  0  0  0  0  0  0  0  0
    3.6373   -9.5349   16.0582 N   0  0  0  0  0  0  0  0  0  0  0  0
    9.9275   -4.8001   18.0438 N   0  0  0  0  0  0  0  0  0  0  0  0
    8.5908   -5.7425   16.4412 C   0  0  0  0  0  0  0  0  0  0  0  0
   10.5993   -4.8981   21.6068 C   0  0  0  0  0  0  0  0  0  0  0  0
   10.4258   -3.0106   23.0998 C   0  0  0  0  0  0  0  0  0  0  0  0
   10.2148   -3.4364   25.4200 C   0  0  0  0  0  0  0  0  0  0  0  0
    9.7853   -1.1840   24.4927 C   0  0  0  0  0  0  0  0  0  0  0  0
    5.0276   -8.5227   17.5352 C   0  0  0  0  0  0  0  0  0  0  0  0
    9.8187   -2.0895   25.5800 C   0  0  0  0  0  0  0  0  0  0  0  0
    5.6473   -8.7216   15.3158 C   0  0  0  0  0  0  0  0  0  0  0  0
   10.7581   -3.1233   19.4720 N   0  0  0  0  0  0  0  0  0  0  0  0
    9.9571   -4.0573   16.8866 C   0  0  0  0  0  0  0  0  0  0  0  0
    7.6213   -6.5618   16.0087 C   0  0  0  0  0  0  0  0  0  0  0  0
   10.8583   -2.6527   20.7222 C   0  0  0  0  0  0  0  0  0  0  0  0
   10.6412   -3.5089   21.7936 C   0  0  0  0  0  0  0  0  0  0  0  0
   10.4972   -3.8968   24.1589 C   0  0  0  0  0  0  0  0  0  0  0  0
    5.9260   -8.2736   16.5517 C   0  0  0  0  0  0  0  0  0  0  0  0
    3.8816   -9.1166   17.2493 C   0  0  0  0  0  0  0  0  0  0  0  0
   10.1297   -1.6575   23.2324 C   0  0  0  0  0  0  0  0  0  0  0  0
    9.4684   -1.6929   26.7263 F   0  0  0  0  0  0  0  0  0  0  0  0
    7.7963   -7.7906   17.9837 C   0  0  0  0  0  0  0  0  0  0  0  0
   10.5884   -3.0725   16.7902 O   0  0  0  0  0  0  0  0  0  0  0  0
   10.4323   -5.3494   20.3516 C   0  0  0  0  0  0  0  0  0  0  0  0
    7.1156   -7.5454   16.8218 C   0  0  0  0  0  0  0  0  0  0  0  0
   10.3885   -4.4388   19.2773 C   0  0  0  0  0  0  0  0  0  0  0  0
    4.5160   -9.3822   15.0841 C   0  0  0  0  0  0  0  0  0  0  0  0
  1  3  4  0
  1 24  4  0
  2  6  4  0
  2 15  4  0
  3  5  4  0
  3  6  4  0
  4 21  4  0
  4 29  4  0
  5 15  4  0
  5 28  1  0
  6 16  4  0
  7 18  4  0
  7 26  4  0
  8 18  1  0
  8 19  4  0
  8 22  4  0
  9 12  4  0
  9 19  4  0
 10 12  4  0
 10 22  4  0
 11 20  4  0
 11 21  4  0
 12 23  1  0
 13 20  4  0
 13 29  4  0
 14 17  4  0
 14 28  4  0
 15 25  2  0
 16 27  4  0
 17 18  4  0
 20 27  1  0
 24 27  4  0
 26 28  4  0
M  END
$$$$

 Created by Python create_sdf_string function

 29 33  0  0  0  0  0  0  0  0999 V2000
    8.8270   -7.0288   18.4251 C   0  0  0  0  0  0  0  0  0  0  0  0
    9.1576   -4.6236   15.8860 O   0  0  0  0  0  0  0  0  0  0  0  0
    9.1509   -5.9108   17.7177 C   0  0  0  0  0  0  0  0  0  0  0  0
    3.6373   -9.5349   16.0582 N   0  0  0  0  0  0  0  0  0  0  0  0
    9.9275   -4.8001   18.0438 N   0  0  0  0  0  0  0  0  0  0  0  0
    8.5908   -5.7425   16.4412 C   0  0  0  0  0  0  0  0  0  0  0  0
   10.5993   -4.8981   21.6068 C   0  0  0  0  0  0  0  0  0  0  0  0
   10.4258   -3.0106   23.0998 C   0  0  0  0  0  0  0  0  0  0  0  0
   10.2148   -3.4364   25.4200 C   0  0  0  0  0  0  0  0  0  0  0  0
    9.7853   -1.1840   24.4927 C   0  0  0  0  0  0  0  0  0  0  0  0
    5.0276   -8.5227   17.5352 C   0  0  0  0  0  0  0  0  0  0  0  0
    9.8187   -2.0895   25.5800 C   0  0  0  0  0  0  0  0  0  0  0  0
    5.6473   -8.7216   15.3158 C   0  0  0  0  0  0  0  0  0  0  0  0
   10.7581   -3.1233   19.4720 N   0  0  0  0  0  0  0  0  0  0  0  0
    9.9571   -4.0573   16.8866 C   0  0  0  0  0  0  0  0  0  0  0  0
    7.6213   -6.5618   16.0087 C   0  0  0  0  0  0  0  0  0  0  0  0
   10.8583   -2.6527   20.7222 C   0  0  0  0  0  0  0  0  0  0  0  0
   10.6412   -3.5089   21.7936 C   0  0  0  0  0  0  0  0  0  0  0  0
   10.4972   -3.8968   24.1589 C   0  0  0  0  0  0  0  0  0  0  0  0
    5.9260   -8.2736   16.5517 C   0  0  0  0  0  0  0  0  0  0  0  0
    3.8816   -9.1166   17.2493 C   0  0  0  0  0  0  0  0  0  0  0  0
   10.1297   -1.6575   23.2324 C   0  0  0  0  0  0  0  0  0  0  0  0
    9.4684   -1.6929   26.7263 F   0  0  0  0  0  0  0  0  0  0  0  0
    7.7963   -7.7906   17.9837 C   0  0  0  0  0  0  0  0  0  0  0  0
   10.5884   -3.0725   16.7902 O   0  0  0  0  0  0  0  0  0  0  0  0
   10.4323   -5.3494   20.3516 C   0  0  0  0  0  0  0  0  0  0  0  0
    7.1156   -7.5454   16.8218 C   0  0  0  0  0  0  0  0  0  0  0  0
   10.3885   -4.4388   19.2773 C   0  0  0  0  0  0  0  0  0  0  0  0
    4.5160   -9.3822   15.0841 C   0  0  0  0  0  0  0  0  0  0  0  0
  1  3  4  0
  1 24  4  0
  2  6  4  0
  2 15  4  0
  3  5  4  0
  3  6  4  0
  4 21  4  0
  4 29  4  0
  5 15  4  0
  5 28  1  0
  6 16  4  0
  7 18  4  0
  7 26  4  0
  8 18  1  0
  8 19  4  0
  8 22  4  0
  9 12  4  0
  9 19  4  0
 10 12  4  0
 10 22  4  0
 11 20  4  0
 11 21  4  0
 12 23  1  0
 13 20  4  0
 13 29  4  0
 14 17  4  0
 14 28  4  0
 15 25  2  0
 16 27  4  0
 17 18  4  0
 20 27  1  0
 24 27  4  0
 26 28  4  0
M  END
$$$$

 Created by Python create_sdf_string function

 29 33  0  0  0  0  0  0  0  0999 V2000
    8.8270   -7.0288   18.4251 C   0  0  0  0  0  0  0  0  0  0  0  0
    9.1576   -4.6236   15.8860 O   0  0  0  0  0  0  0  0  0  0  0  0
    9.1509   -5.9108   17.7177 C   0  0  0  0  0  0  0  0  0  0  0  0
    3.6373   -9.5349   16.0582 N   0  0  0  0  0  0  0  0  0  0  0  0
    9.9275   -4.8001   18.0438 N   0  0  0  0  0  0  0  0  0  0  0  0
    8.5908   -5.7425   16.4412 C   0  0  0  0  0  0  0  0  0  0  0  0
   10.5993   -4.8981   21.6068 C   0  0  0  0  0  0  0  0  0  0  0  0
   10.4258   -3.0106   23.0998 C   0  0  0  0  0  0  0  0  0  0  0  0
   10.2148   -3.4364   25.4200 C   0  0  0  0  0  0  0  0  0  0  0  0
    9.7853   -1.1840   24.4927 C   0  0  0  0  0  0  0  0  0  0  0  0
    5.0276   -8.5227   17.5352 C   0  0  0  0  0  0  0  0  0  0  0  0
    9.8187   -2.0895   25.5800 C   0  0  0  0  0  0  0  0  0  0  0  0
    5.6473   -8.7216   15.3158 C   0  0  0  0  0  0  0  0  0  0  0  0
   10.7581   -3.1233   19.4720 N   0  0  0  0  0  0  0  0  0  0  0  0
    9.9571   -4.0573   16.8866 C   0  0  0  0  0  0  0  0  0  0  0  0
    7.6213   -6.5618   16.0087 C   0  0  0  0  0  0  0  0  0  0  0  0
   10.8583   -2.6527   20.7222 C   0  0  0  0  0  0  0  0  0  0  0  0
   10.6412   -3.5089   21.7936 C   0  0  0  0  0  0  0  0  0  0  0  0
   10.4972   -3.8968   24.1589 C   0  0  0  0  0  0  0  0  0  0  0  0
    5.9260   -8.2736   16.5517 C   0  0  0  0  0  0  0  0  0  0  0  0
    3.8816   -9.1166   17.2493 C   0  0  0  0  0  0  0  0  0  0  0  0
   10.1297   -1.6575   23.2324 C   0  0  0  0  0  0  0  0  0  0  0  0
    9.4684   -1.6929   26.7263 F   0  0  0  0  0  0  0  0  0  0  0  0
    7.7963   -7.7906   17.9837 C   0  0  0  0  0  0  0  0  0  0  0  0
   10.5884   -3.0725   16.7902 O   0  0  0  0  0  0  0  0  0  0  0  0
   10.4323   -5.3494   20.3516 C   0  0  0  0  0  0  0  0  0  0  0  0
    7.1156   -7.5454   16.8218 C   0  0  0  0  0  0  0  0  0  0  0  0
   10.3885   -4.4388   19.2773 C   0  0  0  0  0  0  0  0  0  0  0  0
    4.5160   -9.3822   15.0841 C   0  0  0  0  0  0  0  0  0  0  0  0
  1  3  4  0
  1 24  4  0
  2  6  4  0
  2 15  4  0
  3  5  4  0
  3  6  4  0
  4 21  4  0
  4 29  4  0
  5 15  4  0
  5 28  1  0
  6 16  4  0
  7 18  4  0
  7 26  4  0
  8 18  1  0
  8 19  4  0
  8 22  4  0
  9 12  4  0
  9 19  4  0
 10 12  4  0
 10 22  4  0
 11 20  4  0
 11 21  4  0
 12 23  1  0
 13 20  4  0
 13 29  4  0
 14 17  4  0
 14 28  4  0
 15 25  2  0
 16 27  4  0
 17 18  4  0
 20 27  1  0
 24 27  4  0
 26 28  4  0
M  END
$$$$

 Created by Python create_sdf_string function

 29 33  0  0  0  0  0  0  0  0999 V2000
    8.8270   -7.0288   18.4251 C   0  0  0  0  0  0  0  0  0  0  0  0
    9.1576   -4.6236   15.8860 O   0  0  0  0  0  0  0  0  0  0  0  0
    9.1509   -5.9108   17.7177 C   0  0  0  0  0  0  0  0  0  0  0  0
    3.6373   -9.5349   16.0582 N   0  0  0  0  0  0  0  0  0  0  0  0
    9.9275   -4.8001   18.0438 N   0  0  0  0  0  0  0  0  0  0  0  0
    8.5908   -5.7425   16.4412 C   0  0  0  0  0  0  0  0  0  0  0  0
   10.5993   -4.8981   21.6068 C   0  0  0  0  0  0  0  0  0  0  0  0
   10.4258   -3.0106   23.0998 C   0  0  0  0  0  0  0  0  0  0  0  0
   10.2148   -3.4364   25.4200 C   0  0  0  0  0  0  0  0  0  0  0  0
    9.7853   -1.1840   24.4927 C   0  0  0  0  0  0  0  0  0  0  0  0
    5.0276   -8.5227   17.5352 C   0  0  0  0  0  0  0  0  0  0  0  0
    9.8187   -2.0895   25.5800 C   0  0  0  0  0  0  0  0  0  0  0  0
    5.6473   -8.7216   15.3158 C   0  0  0  0  0  0  0  0  0  0  0  0
   10.7581   -3.1233   19.4720 N   0  0  0  0  0  0  0  0  0  0  0  0
    9.9571   -4.0573   16.8866 C   0  0  0  0  0  0  0  0  0  0  0  0
    7.6213   -6.5618   16.0087 C   0  0  0  0  0  0  0  0  0  0  0  0
   10.8583   -2.6527   20.7222 C   0  0  0  0  0  0  0  0  0  0  0  0
   10.6412   -3.5089   21.7936 C   0  0  0  0  0  0  0  0  0  0  0  0
   10.4972   -3.8968   24.1589 C   0  0  0  0  0  0  0  0  0  0  0  0
    5.9260   -8.2736   16.5517 C   0  0  0  0  0  0  0  0  0  0  0  0
    3.8816   -9.1166   17.2493 C   0  0  0  0  0  0  0  0  0  0  0  0
   10.1297   -1.6575   23.2324 C   0  0  0  0  0  0  0  0  0  0  0  0
    9.4684   -1.6929   26.7263 F   0  0  0  0  0  0  0  0  0  0  0  0
    7.7963   -7.7906   17.9837 C   0  0  0  0  0  0  0  0  0  0  0  0
   10.5884   -3.0725   16.7902 O   0  0  0  0  0  0  0  0  0  0  0  0
   10.4323   -5.3494   20.3516 C   0  0  0  0  0  0  0  0  0  0  0  0
    7.1156   -7.5454   16.8218 C   0  0  0  0  0  0  0  0  0  0  0  0
   10.3885   -4.4388   19.2773 C   0  0  0  0  0  0  0  0  0  0  0  0
    4.5160   -9.3822   15.0841 C   0  0  0  0  0  0  0  0  0  0  0  0
  1  3  4  0
  1 24  4  0
  2  6  4  0
  2 15  4  0
  3  5  4  0
  3  6  4  0
  4 21  4  0
  4 29  4  0
  5 15  4  0
  5 28  1  0
  6 16  4  0
  7 18  4  0
  7 26  4  0
  8 18  1  0
  8 19  4  0
  8 22  4  0
  9 12  4  0
  9 19  4  0
 10 12  4  0
 10 22  4  0
 11 20  4  0
 11 21  4  0
 12 23  1  0
 13 20  4  0
 13 29  4  0
 14 17  4  0
 14 28  4  0
 15 25  2  0
 16 27  4  0
 17 18  4  0
 20 27  1  0
 24 27  4  0
 26 28  4  0
M  END
$$$$

 Created by Python create_sdf_string function

 29 33  0  0  0  0  0  0  0  0999 V2000
    8.8270   -7.0288   18.4251 C   0  0  0  0  0  0  0  0  0  0  0  0
    9.1576   -4.6236   15.8860 O   0  0  0  0  0  0  0  0  0  0  0  0
    9.1509   -5.9108   17.7177 C   0  0  0  0  0  0  0  0  0  0  0  0
    3.6373   -9.5349   16.0582 N   0  0  0  0  0  0  0  0  0  0  0  0
    9.9275   -4.8001   18.0438 N   0  0  0  0  0  0  0  0  0  0  0  0
    8.5908   -5.7425   16.4412 C   0  0  0  0  0  0  0  0  0  0  0  0
   10.5993   -4.8981   21.6068 C   0  0  0  0  0  0  0  0  0  0  0  0
   10.4258   -3.0106   23.0998 C   0  0  0  0  0  0  0  0  0  0  0  0
   10.2148   -3.4364   25.4200 C   0  0  0  0  0  0  0  0  0  0  0  0
    9.7853   -1.1840   24.4927 C   0  0  0  0  0  0  0  0  0  0  0  0
    5.0276   -8.5227   17.5352 C   0  0  0  0  0  0  0  0  0  0  0  0
    9.8187   -2.0895   25.5800 C   0  0  0  0  0  0  0  0  0  0  0  0
    5.6473   -8.7216   15.3158 C   0  0  0  0  0  0  0  0  0  0  0  0
   10.7581   -3.1233   19.4720 N   0  0  0  0  0  0  0  0  0  0  0  0
    9.9571   -4.0573   16.8866 C   0  0  0  0  0  0  0  0  0  0  0  0
    7.6213   -6.5618   16.0087 C   0  0  0  0  0  0  0  0  0  0  0  0
   10.8583   -2.6527   20.7222 C   0  0  0  0  0  0  0  0  0  0  0  0
   10.6412   -3.5089   21.7936 C   0  0  0  0  0  0  0  0  0  0  0  0
   10.4972   -3.8968   24.1589 C   0  0  0  0  0  0  0  0  0  0  0  0
    5.9260   -8.2736   16.5517 C   0  0  0  0  0  0  0  0  0  0  0  0
    3.8816   -9.1166   17.2493 C   0  0  0  0  0  0  0  0  0  0  0  0
   10.1297   -1.6575   23.2324 C   0  0  0  0  0  0  0  0  0  0  0  0
    9.4684   -1.6929   26.7263 F   0  0  0  0  0  0  0  0  0  0  0  0
    7.7963   -7.7906   17.9837 C   0  0  0  0  0  0  0  0  0  0  0  0
   10.5884   -3.0725   16.7902 O   0  0  0  0  0  0  0  0  0  0  0  0
   10.4323   -5.3494   20.3516 C   0  0  0  0  0  0  0  0  0  0  0  0
    7.1156   -7.5454   16.8218 C   0  0  0  0  0  0  0  0  0  0  0  0
   10.3885   -4.4388   19.2773 C   0  0  0  0  0  0  0  0  0  0  0  0
    4.5160   -9.3822   15.0841 C   0  0  0  0  0  0  0  0  0  0  0  0
  1  3  4  0
  1 24  4  0
  2  6  4  0
  2 15  4  0
  3  5  4  0
  3  6  4  0
  4 21  4  0
  4 29  4  0
  5 15  4  0
  5 28  1  0
  6 16  4  0
  7 18  4  0
  7 26  4  0
  8 18  1  0
  8 19  4  0
  8 22  4  0
  9 12  4  0
  9 19  4  0
 10 12  4  0
 10 22  4  0
 11 20  4  0
 11 21  4  0
 12 23  1  0
 13 20  4  0
 13 29  4  0
 14 17  4  0
 14 28  4  0
 15 25  2  0
 16 27  4  0
 17 18  4  0
 20 27  1  0
 24 27  4  0
 26 28  4  0
M  END
$$$$

 Created by Python create_sdf_string function

 29 33  0  0  0  0  0  0  0  0999 V2000
    8.8270   -7.0288   18.4251 C   0  0  0  0  0  0  0  0  0  0  0  0
    9.1576   -4.6236   15.8860 O   0  0  0  0  0  0  0  0  0  0  0  0
    9.1509   -5.9108   17.7177 C   0  0  0  0  0  0  0  0  0  0  0  0
    3.6373   -9.5349   16.0582 N   0  0  0  0  0  0  0  0  0  0  0  0
    9.9275   -4.8001   18.0438 N   0  0  0  0  0  0  0  0  0  0  0  0
    8.5908   -5.7425   16.4412 C   0  0  0  0  0  0  0  0  0  0  0  0
   10.5993   -4.8981   21.6068 C   0  0  0  0  0  0  0  0  0  0  0  0
   10.4258   -3.0106   23.0998 C   0  0  0  0  0  0  0  0  0  0  0  0
   10.2148   -3.4364   25.4200 C   0  0  0  0  0  0  0  0  0  0  0  0
    9.7853   -1.1840   24.4927 C   0  0  0  0  0  0  0  0  0  0  0  0
    5.0276   -8.5227   17.5352 C   0  0  0  0  0  0  0  0  0  0  0  0
    9.8187   -2.0895   25.5800 C   0  0  0  0  0  0  0  0  0  0  0  0
    5.6473   -8.7216   15.3158 C   0  0  0  0  0  0  0  0  0  0  0  0
   10.7581   -3.1233   19.4720 N   0  0  0  0  0  0  0  0  0  0  0  0
    9.9571   -4.0573   16.8866 C   0  0  0  0  0  0  0  0  0  0  0  0
    7.6213   -6.5618   16.0087 C   0  0  0  0  0  0  0  0  0  0  0  0
   10.8583   -2.6527   20.7222 C   0  0  0  0  0  0  0  0  0  0  0  0
   10.6412   -3.5089   21.7936 C   0  0  0  0  0  0  0  0  0  0  0  0
   10.4972   -3.8968   24.1589 C   0  0  0  0  0  0  0  0  0  0  0  0
    5.9260   -8.2736   16.5517 C   0  0  0  0  0  0  0  0  0  0  0  0
    3.8816   -9.1166   17.2493 C   0  0  0  0  0  0  0  0  0  0  0  0
   10.1297   -1.6575   23.2324 C   0  0  0  0  0  0  0  0  0  0  0  0
    9.4684   -1.6929   26.7263 F   0  0  0  0  0  0  0  0  0  0  0  0
    7.7963   -7.7906   17.9837 C   0  0  0  0  0  0  0  0  0  0  0  0
   10.5884   -3.0725   16.7902 O   0  0  0  0  0  0  0  0  0  0  0  0
   10.4323   -5.3494   20.3516 C   0  0  0  0  0  0  0  0  0  0  0  0
    7.1156   -7.5454   16.8218 C   0  0  0  0  0  0  0  0  0  0  0  0
   10.3885   -4.4388   19.2773 C   0  0  0  0  0  0  0  0  0  0  0  0
    4.5160   -9.3822   15.0841 C   0  0  0  0  0  0  0  0  0  0  0  0
  1  3  4  0
  1 24  4  0
  2  6  4  0
  2 15  4  0
  3  5  4  0
  3  6  4  0
  4 21  4  0
  4 29  4  0
  5 15  4  0
  5 28  1  0
  6 16  4  0
  7 18  4  0
  7 26  4  0
  8 18  1  0
  8 19  4  0
  8 22  4  0
  9 12  4  0
  9 19  4  0
 10 12  4  0
 10 22  4  0
 11 20  4  0
 11 21  4  0
 12 23  1  0
 13 20  4  0
 13 29  4  0
 14 17  4  0
 14 28  4  0
 15 25  2  0
 16 27  4  0
 17 18  4  0
 20 27  1  0
 24 27  4  0
 26 28  4  0
M  END
$$$$

 Created by Python create_sdf_string function

 29 33  0  0  0  0  0  0  0  0999 V2000
    8.8270   -7.0288   18.4251 C   0  0  0  0  0  0  0  0  0  0  0  0
    9.1576   -4.6236   15.8860 O   0  0  0  0  0  0  0  0  0  0  0  0
    9.1509   -5.9108   17.7177 C   0  0  0  0  0  0  0  0  0  0  0  0
    3.6373   -9.5349   16.0582 N   0  0  0  0  0  0  0  0  0  0  0  0
    9.9275   -4.8001   18.0438 N   0  0  0  0  0  0  0  0  0  0  0  0
    8.5908   -5.7425   16.4412 C   0  0  0  0  0  0  0  0  0  0  0  0
   10.5993   -4.8981   21.6068 C   0  0  0  0  0  0  0  0  0  0  0  0
   10.4258   -3.0106   23.0998 C   0  0  0  0  0  0  0  0  0  0  0  0
   10.2148   -3.4364   25.4200 C   0  0  0  0  0  0  0  0  0  0  0  0
    9.7853   -1.1840   24.4927 C   0  0  0  0  0  0  0  0  0  0  0  0
    5.0276   -8.5227   17.5352 C   0  0  0  0  0  0  0  0  0  0  0  0
    9.8187   -2.0895   25.5800 C   0  0  0  0  0  0  0  0  0  0  0  0
    5.6473   -8.7216   15.3158 C   0  0  0  0  0  0  0  0  0  0  0  0
   10.7581   -3.1233   19.4720 N   0  0  0  0  0  0  0  0  0  0  0  0
    9.9571   -4.0573   16.8866 C   0  0  0  0  0  0  0  0  0  0  0  0
    7.6213   -6.5618   16.0087 C   0  0  0  0  0  0  0  0  0  0  0  0
   10.8583   -2.6527   20.7222 C   0  0  0  0  0  0  0  0  0  0  0  0
   10.6412   -3.5089   21.7936 C   0  0  0  0  0  0  0  0  0  0  0  0
   10.4972   -3.8968   24.1589 C   0  0  0  0  0  0  0  0  0  0  0  0
    5.9260   -8.2736   16.5517 C   0  0  0  0  0  0  0  0  0  0  0  0
    3.8816   -9.1166   17.2493 C   0  0  0  0  0  0  0  0  0  0  0  0
   10.1297   -1.6575   23.2324 C   0  0  0  0  0  0  0  0  0  0  0  0
    9.4684   -1.6929   26.7263 F   0  0  0  0  0  0  0  0  0  0  0  0
    7.7963   -7.7906   17.9837 C   0  0  0  0  0  0  0  0  0  0  0  0
   10.5884   -3.0725   16.7902 O   0  0  0  0  0  0  0  0  0  0  0  0
   10.4323   -5.3494   20.3516 C   0  0  0  0  0  0  0  0  0  0  0  0
    7.1156   -7.5454   16.8218 C   0  0  0  0  0  0  0  0  0  0  0  0
   10.3885   -4.4388   19.2773 C   0  0  0  0  0  0  0  0  0  0  0  0
    4.5160   -9.3822   15.0841 C   0  0  0  0  0  0  0  0  0  0  0  0
  1  3  4  0
  1 24  4  0
  2  6  4  0
  2 15  4  0
  3  5  4  0
  3  6  4  0
  4 21  4  0
  4 29  4  0
  5 15  4  0
  5 28  1  0
  6 16  4  0
  7 18  4  0
  7 26  4  0
  8 18  1  0
  8 19  4  0
  8 22  4  0
  9 12  4  0
  9 19  4  0
 10 12  4  0
 10 22  4  0
 11 20  4  0
 11 21  4  0
 12 23  1  0
 13 20  4  0
 13 29  4  0
 14 17  4  0
 14 28  4  0
 15 25  2  0
 16 27  4  0
 17 18  4  0
 20 27  1  0
 24 27  4  0
 26 28  4  0
M  END
$$$$

 Created by Python create_sdf_string function

 29 33  0  0  0  0  0  0  0  0999 V2000
    8.8270   -7.0288   18.4251 C   0  0  0  0  0  0  0  0  0  0  0  0
    9.1576   -4.6236   15.8860 O   0  0  0  0  0  0  0  0  0  0  0  0
    9.1509   -5.9108   17.7177 C   0  0  0  0  0  0  0  0  0  0  0  0
    3.6373   -9.5349   16.0582 N   0  0  0  0  0  0  0  0  0  0  0  0
    9.9275   -4.8001   18.0438 N   0  0  0  0  0  0  0  0  0  0  0  0
    8.5908   -5.7425   16.4412 C   0  0  0  0  0  0  0  0  0  0  0  0
   10.5993   -4.8981   21.6068 C   0  0  0  0  0  0  0  0  0  0  0  0
   10.4258   -3.0106   23.0998 C   0  0  0  0  0  0  0  0  0  0  0  0
   10.2148   -3.4364   25.4200 C   0  0  0  0  0  0  0  0  0  0  0  0
    9.7853   -1.1840   24.4927 C   0  0  0  0  0  0  0  0  0  0  0  0
    5.0276   -8.5227   17.5352 C   0  0  0  0  0  0  0  0  0  0  0  0
    9.8187   -2.0895   25.5800 C   0  0  0  0  0  0  0  0  0  0  0  0
    5.6473   -8.7216   15.3158 C   0  0  0  0  0  0  0  0  0  0  0  0
   10.7581   -3.1233   19.4720 N   0  0  0  0  0  0  0  0  0  0  0  0
    9.9571   -4.0573   16.8866 C   0  0  0  0  0  0  0  0  0  0  0  0
    7.6213   -6.5618   16.0087 C   0  0  0  0  0  0  0  0  0  0  0  0
   10.8583   -2.6527   20.7222 C   0  0  0  0  0  0  0  0  0  0  0  0
   10.6412   -3.5089   21.7936 C   0  0  0  0  0  0  0  0  0  0  0  0
   10.4972   -3.8968   24.1589 C   0  0  0  0  0  0  0  0  0  0  0  0
    5.9260   -8.2736   16.5517 C   0  0  0  0  0  0  0  0  0  0  0  0
    3.8816   -9.1166   17.2493 C   0  0  0  0  0  0  0  0  0  0  0  0
   10.1297   -1.6575   23.2324 C   0  0  0  0  0  0  0  0  0  0  0  0
    9.4684   -1.6929   26.7263 F   0  0  0  0  0  0  0  0  0  0  0  0
    7.7963   -7.7906   17.9837 C   0  0  0  0  0  0  0  0  0  0  0  0
   10.5884   -3.0725   16.7902 O   0  0  0  0  0  0  0  0  0  0  0  0
   10.4323   -5.3494   20.3516 C   0  0  0  0  0  0  0  0  0  0  0  0
    7.1156   -7.5454   16.8218 C   0  0  0  0  0  0  0  0  0  0  0  0
   10.3885   -4.4388   19.2773 C   0  0  0  0  0  0  0  0  0  0  0  0
    4.5160   -9.3822   15.0841 C   0  0  0  0  0  0  0  0  0  0  0  0
  1  3  4  0
  1 24  4  0
  2  6  4  0
  2 15  4  0
  3  5  4  0
  3  6  4  0
  4 21  4  0
  4 29  4  0
  5 15  4  0
  5 28  1  0
  6 16  4  0
  7 18  4  0
  7 26  4  0
  8 18  1  0
  8 19  4  0
  8 22  4  0
  9 12  4  0
  9 19  4  0
 10 12  4  0
 10 22  4  0
 11 20  4  0
 11 21  4  0
 12 23  1  0
 13 20  4  0
 13 29  4  0
 14 17  4  0
 14 28  4  0
 15 25  2  0
 16 27  4  0
 17 18  4  0
 20 27  1  0
 24 27  4  0
 26 28  4  0
M  END
$$$$

 Created by Python create_sdf_string function

 29 33  0  0  0  0  0  0  0  0999 V2000
    8.8270   -7.0288   18.4251 C   0  0  0  0  0  0  0  0  0  0  0  0
    9.1576   -4.6236   15.8860 O   0  0  0  0  0  0  0  0  0  0  0  0
    9.1509   -5.9108   17.7177 C   0  0  0  0  0  0  0  0  0  0  0  0
    3.6373   -9.5349   16.0582 N   0  0  0  0  0  0  0  0  0  0  0  0
    9.9275   -4.8001   18.0438 N   0  0  0  0  0  0  0  0  0  0  0  0
    8.5908   -5.7425   16.4412 C   0  0  0  0  0  0  0  0  0  0  0  0
   10.5993   -4.8981   21.6068 C   0  0  0  0  0  0  0  0  0  0  0  0
   10.4258   -3.0106   23.0998 C   0  0  0  0  0  0  0  0  0  0  0  0
   10.2148   -3.4364   25.4200 C   0  0  0  0  0  0  0  0  0  0  0  0
    9.7853   -1.1840   24.4927 C   0  0  0  0  0  0  0  0  0  0  0  0
    5.0276   -8.5227   17.5352 C   0  0  0  0  0  0  0  0  0  0  0  0
    9.8187   -2.0895   25.5800 C   0  0  0  0  0  0  0  0  0  0  0  0
    5.6473   -8.7216   15.3158 C   0  0  0  0  0  0  0  0  0  0  0  0
   10.7581   -3.1233   19.4720 N   0  0  0  0  0  0  0  0  0  0  0  0
    9.9571   -4.0573   16.8866 C   0  0  0  0  0  0  0  0  0  0  0  0
    7.6213   -6.5618   16.0087 C   0  0  0  0  0  0  0  0  0  0  0  0
   10.8583   -2.6527   20.7222 C   0  0  0  0  0  0  0  0  0  0  0  0
   10.6412   -3.5089   21.7936 C   0  0  0  0  0  0  0  0  0  0  0  0
   10.4972   -3.8968   24.1589 C   0  0  0  0  0  0  0  0  0  0  0  0
    5.9260   -8.2736   16.5517 C   0  0  0  0  0  0  0  0  0  0  0  0
    3.8816   -9.1166   17.2493 C   0  0  0  0  0  0  0  0  0  0  0  0
   10.1297   -1.6575   23.2324 C   0  0  0  0  0  0  0  0  0  0  0  0
    9.4684   -1.6929   26.7263 F   0  0  0  0  0  0  0  0  0  0  0  0
    7.7963   -7.7906   17.9837 C   0  0  0  0  0  0  0  0  0  0  0  0
   10.5884   -3.0725   16.7902 O   0  0  0  0  0  0  0  0  0  0  0  0
   10.4323   -5.3494   20.3516 C   0  0  0  0  0  0  0  0  0  0  0  0
    7.1156   -7.5454   16.8218 C   0  0  0  0  0  0  0  0  0  0  0  0
   10.3885   -4.4388   19.2773 C   0  0  0  0  0  0  0  0  0  0  0  0
    4.5160   -9.3822   15.0841 C   0  0  0  0  0  0  0  0  0  0  0  0
  1  3  4  0
  1 24  4  0
  2  6  4  0
  2 15  4  0
  3  5  4  0
  3  6  4  0
  4 21  4  0
  4 29  4  0
  5 15  4  0
  5 28  1  0
  6 16  4  0
  7 18  4  0
  7 26  4  0
  8 18  1  0
  8 19  4  0
  8 22  4  0
  9 12  4  0
  9 19  4  0
 10 12  4  0
 10 22  4  0
 11 20  4  0
 11 21  4  0
 12 23  1  0
 13 20  4  0
 13 29  4  0
 14 17  4  0
 14 28  4  0
 15 25  2  0
 16 27  4  0
 17 18  4  0
 20 27  1  0
 24 27  4  0
 26 28  4  0
M  END
$$$$

 Created by Python create_sdf_string function

 29 33  0  0  0  0  0  0  0  0999 V2000
    8.8270   -7.0288   18.4251 C   0  0  0  0  0  0  0  0  0  0  0  0
    9.1576   -4.6236   15.8860 O   0  0  0  0  0  0  0  0  0  0  0  0
    9.1509   -5.9108   17.7177 C   0  0  0  0  0  0  0  0  0  0  0  0
    3.6373   -9.5349   16.0582 N   0  0  0  0  0  0  0  0  0  0  0  0
    9.9275   -4.8001   18.0438 N   0  0  0  0  0  0  0  0  0  0  0  0
    8.5908   -5.7425   16.4412 C   0  0  0  0  0  0  0  0  0  0  0  0
   10.5993   -4.8981   21.6068 C   0  0  0  0  0  0  0  0  0  0  0  0
   10.4258   -3.0106   23.0998 C   0  0  0  0  0  0  0  0  0  0  0  0
   10.2148   -3.4364   25.4200 C   0  0  0  0  0  0  0  0  0  0  0  0
    9.7853   -1.1840   24.4927 C   0  0  0  0  0  0  0  0  0  0  0  0
    5.0276   -8.5227   17.5352 C   0  0  0  0  0  0  0  0  0  0  0  0
    9.8187   -2.0895   25.5800 C   0  0  0  0  0  0  0  0  0  0  0  0
    5.6473   -8.7216   15.3158 C   0  0  0  0  0  0  0  0  0  0  0  0
   10.7581   -3.1233   19.4720 N   0  0  0  0  0  0  0  0  0  0  0  0
    9.9571   -4.0573   16.8866 C   0  0  0  0  0  0  0  0  0  0  0  0
    7.6213   -6.5618   16.0087 C   0  0  0  0  0  0  0  0  0  0  0  0
   10.8583   -2.6527   20.7222 C   0  0  0  0  0  0  0  0  0  0  0  0
   10.6412   -3.5089   21.7936 C   0  0  0  0  0  0  0  0  0  0  0  0
   10.4972   -3.8968   24.1589 C   0  0  0  0  0  0  0  0  0  0  0  0
    5.9260   -8.2736   16.5517 C   0  0  0  0  0  0  0  0  0  0  0  0
    3.8816   -9.1166   17.2493 C   0  0  0  0  0  0  0  0  0  0  0  0
   10.1297   -1.6575   23.2324 C   0  0  0  0  0  0  0  0  0  0  0  0
    9.4684   -1.6929   26.7263 F   0  0  0  0  0  0  0  0  0  0  0  0
    7.7963   -7.7906   17.9837 C   0  0  0  0  0  0  0  0  0  0  0  0
   10.5884   -3.0725   16.7902 O   0  0  0  0  0  0  0  0  0  0  0  0
   10.4323   -5.3494   20.3516 C   0  0  0  0  0  0  0  0  0  0  0  0
    7.1156   -7.5454   16.8218 C   0  0  0  0  0  0  0  0  0  0  0  0
   10.3885   -4.4388   19.2773 C   0  0  0  0  0  0  0  0  0  0  0  0
    4.5160   -9.3822   15.0841 C   0  0  0  0  0  0  0  0  0  0  0  0
  1  3  4  0
  1 24  4  0
  2  6  4  0
  2 15  4  0
  3  5  4  0
  3  6  4  0
  4 21  4  0
  4 29  4  0
  5 15  4  0
  5 28  1  0
  6 16  4  0
  7 18  4  0
  7 26  4  0
  8 18  1  0
  8 19  4  0
  8 22  4  0
  9 12  4  0
  9 19  4  0
 10 12  4  0
 10 22  4  0
 11 20  4  0
 11 21  4  0
 12 23  1  0
 13 20  4  0
 13 29  4  0
 14 17  4  0
 14 28  4  0
 15 25  2  0
 16 27  4  0
 17 18  4  0
 20 27  1  0
 24 27  4  0
 26 28  4  0
M  END
$$$$

 Created by Python create_sdf_string function

 29 33  0  0  0  0  0  0  0  0999 V2000
    8.8270   -7.0288   18.4251 C   0  0  0  0  0  0  0  0  0  0  0  0
    9.1576   -4.6236   15.8860 O   0  0  0  0  0  0  0  0  0  0  0  0
    9.1509   -5.9108   17.7177 C   0  0  0  0  0  0  0  0  0  0  0  0
    3.6373   -9.5349   16.0582 N   0  0  0  0  0  0  0  0  0  0  0  0
    9.9275   -4.8001   18.0438 N   0  0  0  0  0  0  0  0  0  0  0  0
    8.5908   -5.7425   16.4412 C   0  0  0  0  0  0  0  0  0  0  0  0
   10.5993   -4.8981   21.6068 C   0  0  0  0  0  0  0  0  0  0  0  0
   10.4258   -3.0106   23.0998 C   0  0  0  0  0  0  0  0  0  0  0  0
   10.2148   -3.4364   25.4200 C   0  0  0  0  0  0  0  0  0  0  0  0
    9.7853   -1.1840   24.4927 C   0  0  0  0  0  0  0  0  0  0  0  0
    5.0276   -8.5227   17.5352 C   0  0  0  0  0  0  0  0  0  0  0  0
    9.8187   -2.0895   25.5800 C   0  0  0  0  0  0  0  0  0  0  0  0
    5.6473   -8.7216   15.3158 C   0  0  0  0  0  0  0  0  0  0  0  0
   10.7581   -3.1233   19.4720 N   0  0  0  0  0  0  0  0  0  0  0  0
    9.9571   -4.0573   16.8866 C   0  0  0  0  0  0  0  0  0  0  0  0
    7.6213   -6.5618   16.0087 C   0  0  0  0  0  0  0  0  0  0  0  0
   10.8583   -2.6527   20.7222 C   0  0  0  0  0  0  0  0  0  0  0  0
   10.6412   -3.5089   21.7936 C   0  0  0  0  0  0  0  0  0  0  0  0
   10.4972   -3.8968   24.1589 C   0  0  0  0  0  0  0  0  0  0  0  0
    5.9260   -8.2736   16.5517 C   0  0  0  0  0  0  0  0  0  0  0  0
    3.8816   -9.1166   17.2493 C   0  0  0  0  0  0  0  0  0  0  0  0
   10.1297   -1.6575   23.2324 C   0  0  0  0  0  0  0  0  0  0  0  0
    9.4684   -1.6929   26.7263 F   0  0  0  0  0  0  0  0  0  0  0  0
    7.7963   -7.7906   17.9837 C   0  0  0  0  0  0  0  0  0  0  0  0
   10.5884   -3.0725   16.7902 O   0  0  0  0  0  0  0  0  0  0  0  0
   10.4323   -5.3494   20.3516 C   0  0  0  0  0  0  0  0  0  0  0  0
    7.1156   -7.5454   16.8218 C   0  0  0  0  0  0  0  0  0  0  0  0
   10.3885   -4.4388   19.2773 C   0  0  0  0  0  0  0  0  0  0  0  0
    4.5160   -9.3822   15.0841 C   0  0  0  0  0  0  0  0  0  0  0  0
  1  3  4  0
  1 24  4  0
  2  6  4  0
  2 15  4  0
  3  5  4  0
  3  6  4  0
  4 21  4  0
  4 29  4  0
  5 15  4  0
  5 28  1  0
  6 16  4  0
  7 18  4  0
  7 26  4  0
  8 18  1  0
  8 19  4  0
  8 22  4  0
  9 12  4  0
  9 19  4  0
 10 12  4  0
 10 22  4  0
 11 20  4  0
 11 21  4  0
 12 23  1  0
 13 20  4  0
 13 29  4  0
 14 17  4  0
 14 28  4  0
 15 25  2  0
 16 27  4  0
 17 18  4  0
 20 27  1  0
 24 27  4  0
 26 28  4  0
M  END
$$$$

 Created by Python create_sdf_string function

 29 33  0  0  0  0  0  0  0  0999 V2000
    8.8270   -7.0288   18.4251 C   0  0  0  0  0  0  0  0  0  0  0  0
    9.1576   -4.6236   15.8860 O   0  0  0  0  0  0  0  0  0  0  0  0
    9.1509   -5.9108   17.7177 C   0  0  0  0  0  0  0  0  0  0  0  0
    3.6373   -9.5349   16.0582 N   0  0  0  0  0  0  0  0  0  0  0  0
    9.9275   -4.8001   18.0438 N   0  0  0  0  0  0  0  0  0  0  0  0
    8.5908   -5.7425   16.4412 C   0  0  0  0  0  0  0  0  0  0  0  0
   10.5993   -4.8981   21.6068 C   0  0  0  0  0  0  0  0  0  0  0  0
   10.4258   -3.0106   23.0998 C   0  0  0  0  0  0  0  0  0  0  0  0
   10.2148   -3.4364   25.4200 C   0  0  0  0  0  0  0  0  0  0  0  0
    9.7853   -1.1840   24.4927 C   0  0  0  0  0  0  0  0  0  0  0  0
    5.0276   -8.5227   17.5352 C   0  0  0  0  0  0  0  0  0  0  0  0
    9.8187   -2.0895   25.5800 C   0  0  0  0  0  0  0  0  0  0  0  0
    5.6473   -8.7216   15.3158 C   0  0  0  0  0  0  0  0  0  0  0  0
   10.7581   -3.1233   19.4720 N   0  0  0  0  0  0  0  0  0  0  0  0
    9.9571   -4.0573   16.8866 C   0  0  0  0  0  0  0  0  0  0  0  0
    7.6213   -6.5618   16.0087 C   0  0  0  0  0  0  0  0  0  0  0  0
   10.8583   -2.6527   20.7222 C   0  0  0  0  0  0  0  0  0  0  0  0
   10.6412   -3.5089   21.7936 C   0  0  0  0  0  0  0  0  0  0  0  0
   10.4972   -3.8968   24.1589 C   0  0  0  0  0  0  0  0  0  0  0  0
    5.9260   -8.2736   16.5517 C   0  0  0  0  0  0  0  0  0  0  0  0
    3.8816   -9.1166   17.2493 C   0  0  0  0  0  0  0  0  0  0  0  0
   10.1297   -1.6575   23.2324 C   0  0  0  0  0  0  0  0  0  0  0  0
    9.4684   -1.6929   26.7263 F   0  0  0  0  0  0  0  0  0  0  0  0
    7.7963   -7.7906   17.9837 C   0  0  0  0  0  0  0  0  0  0  0  0
   10.5884   -3.0725   16.7902 O   0  0  0  0  0  0  0  0  0  0  0  0
   10.4323   -5.3494   20.3516 C   0  0  0  0  0  0  0  0  0  0  0  0
    7.1156   -7.5454   16.8218 C   0  0  0  0  0  0  0  0  0  0  0  0
   10.3885   -4.4388   19.2773 C   0  0  0  0  0  0  0  0  0  0  0  0
    4.5160   -9.3822   15.0841 C   0  0  0  0  0  0  0  0  0  0  0  0
  1  3  4  0
  1 24  4  0
  2  6  4  0
  2 15  4  0
  3  5  4  0
  3  6  4  0
  4 21  4  0
  4 29  4  0
  5 15  4  0
  5 28  1  0
  6 16  4  0
  7 18  4  0
  7 26  4  0
  8 18  1  0
  8 19  4  0
  8 22  4  0
  9 12  4  0
  9 19  4  0
 10 12  4  0
 10 22  4  0
 11 20  4  0
 11 21  4  0
 12 23  1  0
 13 20  4  0
 13 29  4  0
 14 17  4  0
 14 28  4  0
 15 25  2  0
 16 27  4  0
 17 18  4  0
 20 27  1  0
 24 27  4  0
 26 28  4  0
M  END
$$$$

 Created by Python create_sdf_string function

 29 33  0  0  0  0  0  0  0  0999 V2000
    8.8270   -7.0288   18.4251 C   0  0  0  0  0  0  0  0  0  0  0  0
    9.1576   -4.6236   15.8860 O   0  0  0  0  0  0  0  0  0  0  0  0
    9.1509   -5.9108   17.7177 C   0  0  0  0  0  0  0  0  0  0  0  0
    3.6373   -9.5349   16.0582 N   0  0  0  0  0  0  0  0  0  0  0  0
    9.9275   -4.8001   18.0438 N   0  0  0  0  0  0  0  0  0  0  0  0
    8.5908   -5.7425   16.4412 C   0  0  0  0  0  0  0  0  0  0  0  0
   10.5993   -4.8981   21.6068 C   0  0  0  0  0  0  0  0  0  0  0  0
   10.4258   -3.0106   23.0998 C   0  0  0  0  0  0  0  0  0  0  0  0
   10.2148   -3.4364   25.4200 C   0  0  0  0  0  0  0  0  0  0  0  0
    9.7853   -1.1840   24.4927 C   0  0  0  0  0  0  0  0  0  0  0  0
    5.0276   -8.5227   17.5352 C   0  0  0  0  0  0  0  0  0  0  0  0
    9.8187   -2.0895   25.5800 C   0  0  0  0  0  0  0  0  0  0  0  0
    5.6473   -8.7216   15.3158 C   0  0  0  0  0  0  0  0  0  0  0  0
   10.7581   -3.1233   19.4720 N   0  0  0  0  0  0  0  0  0  0  0  0
    9.9571   -4.0573   16.8866 C   0  0  0  0  0  0  0  0  0  0  0  0
    7.6213   -6.5618   16.0087 C   0  0  0  0  0  0  0  0  0  0  0  0
   10.8583   -2.6527   20.7222 C   0  0  0  0  0  0  0  0  0  0  0  0
   10.6412   -3.5089   21.7936 C   0  0  0  0  0  0  0  0  0  0  0  0
   10.4972   -3.8968   24.1589 C   0  0  0  0  0  0  0  0  0  0  0  0
    5.9260   -8.2736   16.5517 C   0  0  0  0  0  0  0  0  0  0  0  0
    3.8816   -9.1166   17.2493 C   0  0  0  0  0  0  0  0  0  0  0  0
   10.1297   -1.6575   23.2324 C   0  0  0  0  0  0  0  0  0  0  0  0
    9.4684   -1.6929   26.7263 F   0  0  0  0  0  0  0  0  0  0  0  0
    7.7963   -7.7906   17.9837 C   0  0  0  0  0  0  0  0  0  0  0  0
   10.5884   -3.0725   16.7902 O   0  0  0  0  0  0  0  0  0  0  0  0
   10.4323   -5.3494   20.3516 C   0  0  0  0  0  0  0  0  0  0  0  0
    7.1156   -7.5454   16.8218 C   0  0  0  0  0  0  0  0  0  0  0  0
   10.3885   -4.4388   19.2773 C   0  0  0  0  0  0  0  0  0  0  0  0
    4.5160   -9.3822   15.0841 C   0  0  0  0  0  0  0  0  0  0  0  0
  1  3  4  0
  1 24  4  0
  2  6  4  0
  2 15  4  0
  3  5  4  0
  3  6  4  0
  4 21  4  0
  4 29  4  0
  5 15  4  0
  5 28  1  0
  6 16  4  0
  7 18  4  0
  7 26  4  0
  8 18  1  0
  8 19  4  0
  8 22  4  0
  9 12  4  0
  9 19  4  0
 10 12  4  0
 10 22  4  0
 11 20  4  0
 11 21  4  0
 12 23  1  0
 13 20  4  0
 13 29  4  0
 14 17  4  0
 14 28  4  0
 15 25  2  0
 16 27  4  0
 17 18  4  0
 20 27  1  0
 24 27  4  0
 26 28  4  0
M  END
$$$$

 Created by Python create_sdf_string function

 29 33  0  0  0  0  0  0  0  0999 V2000
    8.8270   -7.0288   18.4251 C   0  0  0  0  0  0  0  0  0  0  0  0
    9.1576   -4.6236   15.8860 O   0  0  0  0  0  0  0  0  0  0  0  0
    9.1509   -5.9108   17.7177 C   0  0  0  0  0  0  0  0  0  0  0  0
    3.6373   -9.5349   16.0582 N   0  0  0  0  0  0  0  0  0  0  0  0
    9.9275   -4.8001   18.0438 N   0  0  0  0  0  0  0  0  0  0  0  0
    8.5908   -5.7425   16.4412 C   0  0  0  0  0  0  0  0  0  0  0  0
   10.5993   -4.8981   21.6068 C   0  0  0  0  0  0  0  0  0  0  0  0
   10.4258   -3.0106   23.0998 C   0  0  0  0  0  0  0  0  0  0  0  0
   10.2148   -3.4364   25.4200 C   0  0  0  0  0  0  0  0  0  0  0  0
    9.7853   -1.1840   24.4927 C   0  0  0  0  0  0  0  0  0  0  0  0
    5.0276   -8.5227   17.5352 C   0  0  0  0  0  0  0  0  0  0  0  0
    9.8187   -2.0895   25.5800 C   0  0  0  0  0  0  0  0  0  0  0  0
    5.6473   -8.7216   15.3158 C   0  0  0  0  0  0  0  0  0  0  0  0
   10.7581   -3.1233   19.4720 N   0  0  0  0  0  0  0  0  0  0  0  0
    9.9571   -4.0573   16.8866 C   0  0  0  0  0  0  0  0  0  0  0  0
    7.6213   -6.5618   16.0087 C   0  0  0  0  0  0  0  0  0  0  0  0
   10.8583   -2.6527   20.7222 C   0  0  0  0  0  0  0  0  0  0  0  0
   10.6412   -3.5089   21.7936 C   0  0  0  0  0  0  0  0  0  0  0  0
   10.4972   -3.8968   24.1589 C   0  0  0  0  0  0  0  0  0  0  0  0
    5.9260   -8.2736   16.5517 C   0  0  0  0  0  0  0  0  0  0  0  0
    3.8816   -9.1166   17.2493 C   0  0  0  0  0  0  0  0  0  0  0  0
   10.1297   -1.6575   23.2324 C   0  0  0  0  0  0  0  0  0  0  0  0
    9.4684   -1.6929   26.7263 F   0  0  0  0  0  0  0  0  0  0  0  0
    7.7963   -7.7906   17.9837 C   0  0  0  0  0  0  0  0  0  0  0  0
   10.5884   -3.0725   16.7902 O   0  0  0  0  0  0  0  0  0  0  0  0
   10.4323   -5.3494   20.3516 C   0  0  0  0  0  0  0  0  0  0  0  0
    7.1156   -7.5454   16.8218 C   0  0  0  0  0  0  0  0  0  0  0  0
   10.3885   -4.4388   19.2773 C   0  0  0  0  0  0  0  0  0  0  0  0
    4.5160   -9.3822   15.0841 C   0  0  0  0  0  0  0  0  0  0  0  0
  1  3  4  0
  1 24  4  0
  2  6  4  0
  2 15  4  0
  3  5  4  0
  3  6  4  0
  4 21  4  0
  4 29  4  0
  5 15  4  0
  5 28  1  0
  6 16  4  0
  7 18  4  0
  7 26  4  0
  8 18  1  0
  8 19  4  0
  8 22  4  0
  9 12  4  0
  9 19  4  0
 10 12  4  0
 10 22  4  0
 11 20  4  0
 11 21  4  0
 12 23  1  0
 13 20  4  0
 13 29  4  0
 14 17  4  0
 14 28  4  0
 15 25  2  0
 16 27  4  0
 17 18  4  0
 20 27  1  0
 24 27  4  0
 26 28  4  0
M  END
$$$$

 Created by Python create_sdf_string function

 29 33  0  0  0  0  0  0  0  0999 V2000
    8.8270   -7.0288   18.4251 C   0  0  0  0  0  0  0  0  0  0  0  0
    9.1576   -4.6236   15.8860 O   0  0  0  0  0  0  0  0  0  0  0  0
    9.1509   -5.9108   17.7177 C   0  0  0  0  0  0  0  0  0  0  0  0
    3.6373   -9.5349   16.0582 N   0  0  0  0  0  0  0  0  0  0  0  0
    9.9275   -4.8001   18.0438 N   0  0  0  0  0  0  0  0  0  0  0  0
    8.5908   -5.7425   16.4412 C   0  0  0  0  0  0  0  0  0  0  0  0
   10.5993   -4.8981   21.6068 C   0  0  0  0  0  0  0  0  0  0  0  0
   10.4258   -3.0106   23.0998 C   0  0  0  0  0  0  0  0  0  0  0  0
   10.2148   -3.4364   25.4200 C   0  0  0  0  0  0  0  0  0  0  0  0
    9.7853   -1.1840   24.4927 C   0  0  0  0  0  0  0  0  0  0  0  0
    5.0276   -8.5227   17.5352 C   0  0  0  0  0  0  0  0  0  0  0  0
    9.8187   -2.0895   25.5800 C   0  0  0  0  0  0  0  0  0  0  0  0
    5.6473   -8.7216   15.3158 C   0  0  0  0  0  0  0  0  0  0  0  0
   10.7581   -3.1233   19.4720 N   0  0  0  0  0  0  0  0  0  0  0  0
    9.9571   -4.0573   16.8866 C   0  0  0  0  0  0  0  0  0  0  0  0
    7.6213   -6.5618   16.0087 C   0  0  0  0  0  0  0  0  0  0  0  0
   10.8583   -2.6527   20.7222 C   0  0  0  0  0  0  0  0  0  0  0  0
   10.6412   -3.5089   21.7936 C   0  0  0  0  0  0  0  0  0  0  0  0
   10.4972   -3.8968   24.1589 C   0  0  0  0  0  0  0  0  0  0  0  0
    5.9260   -8.2736   16.5517 C   0  0  0  0  0  0  0  0  0  0  0  0
    3.8816   -9.1166   17.2493 C   0  0  0  0  0  0  0  0  0  0  0  0
   10.1297   -1.6575   23.2324 C   0  0  0  0  0  0  0  0  0  0  0  0
    9.4684   -1.6929   26.7263 F   0  0  0  0  0  0  0  0  0  0  0  0
    7.7963   -7.7906   17.9837 C   0  0  0  0  0  0  0  0  0  0  0  0
   10.5884   -3.0725   16.7902 O   0  0  0  0  0  0  0  0  0  0  0  0
   10.4323   -5.3494   20.3516 C   0  0  0  0  0  0  0  0  0  0  0  0
    7.1156   -7.5454   16.8218 C   0  0  0  0  0  0  0  0  0  0  0  0
   10.3885   -4.4388   19.2773 C   0  0  0  0  0  0  0  0  0  0  0  0
    4.5160   -9.3822   15.0841 C   0  0  0  0  0  0  0  0  0  0  0  0
  1  3  4  0
  1 24  4  0
  2  6  4  0
  2 15  4  0
  3  5  4  0
  3  6  4  0
  4 21  4  0
  4 29  4  0
  5 15  4  0
  5 28  1  0
  6 16  4  0
  7 18  4  0
  7 26  4  0
  8 18  1  0
  8 19  4  0
  8 22  4  0
  9 12  4  0
  9 19  4  0
 10 12  4  0
 10 22  4  0
 11 20  4  0
 11 21  4  0
 12 23  1  0
 13 20  4  0
 13 29  4  0
 14 17  4  0
 14 28  4  0
 15 25  2  0
 16 27  4  0
 17 18  4  0
 20 27  1  0
 24 27  4  0
 26 28  4  0
M  END
$$$$

 Created by Python create_sdf_string function

 29 33  0  0  0  0  0  0  0  0999 V2000
    8.8270   -7.0288   18.4251 C   0  0  0  0  0  0  0  0  0  0  0  0
    9.1576   -4.6236   15.8860 O   0  0  0  0  0  0  0  0  0  0  0  0
    9.1509   -5.9108   17.7177 C   0  0  0  0  0  0  0  0  0  0  0  0
    3.6373   -9.5349   16.0582 N   0  0  0  0  0  0  0  0  0  0  0  0
    9.9275   -4.8001   18.0438 N   0  0  0  0  0  0  0  0  0  0  0  0
    8.5908   -5.7425   16.4412 C   0  0  0  0  0  0  0  0  0  0  0  0
   10.5993   -4.8981   21.6068 C   0  0  0  0  0  0  0  0  0  0  0  0
   10.4258   -3.0106   23.0998 C   0  0  0  0  0  0  0  0  0  0  0  0
   10.2148   -3.4364   25.4200 C   0  0  0  0  0  0  0  0  0  0  0  0
    9.7853   -1.1840   24.4927 C   0  0  0  0  0  0  0  0  0  0  0  0
    5.0276   -8.5227   17.5352 C   0  0  0  0  0  0  0  0  0  0  0  0
    9.8187   -2.0895   25.5800 C   0  0  0  0  0  0  0  0  0  0  0  0
    5.6473   -8.7216   15.3158 C   0  0  0  0  0  0  0  0  0  0  0  0
   10.7581   -3.1233   19.4720 N   0  0  0  0  0  0  0  0  0  0  0  0
    9.9571   -4.0573   16.8866 C   0  0  0  0  0  0  0  0  0  0  0  0
    7.6213   -6.5618   16.0087 C   0  0  0  0  0  0  0  0  0  0  0  0
   10.8583   -2.6527   20.7222 C   0  0  0  0  0  0  0  0  0  0  0  0
   10.6412   -3.5089   21.7936 C   0  0  0  0  0  0  0  0  0  0  0  0
   10.4972   -3.8968   24.1589 C   0  0  0  0  0  0  0  0  0  0  0  0
    5.9260   -8.2736   16.5517 C   0  0  0  0  0  0  0  0  0  0  0  0
    3.8816   -9.1166   17.2493 C   0  0  0  0  0  0  0  0  0  0  0  0
   10.1297   -1.6575   23.2324 C   0  0  0  0  0  0  0  0  0  0  0  0
    9.4684   -1.6929   26.7263 F   0  0  0  0  0  0  0  0  0  0  0  0
    7.7963   -7.7906   17.9837 C   0  0  0  0  0  0  0  0  0  0  0  0
   10.5884   -3.0725   16.7902 O   0  0  0  0  0  0  0  0  0  0  0  0
   10.4323   -5.3494   20.3516 C   0  0  0  0  0  0  0  0  0  0  0  0
    7.1156   -7.5454   16.8218 C   0  0  0  0  0  0  0  0  0  0  0  0
   10.3885   -4.4388   19.2773 C   0  0  0  0  0  0  0  0  0  0  0  0
    4.5160   -9.3822   15.0841 C   0  0  0  0  0  0  0  0  0  0  0  0
  1  3  4  0
  1 24  4  0
  2  6  4  0
  2 15  4  0
  3  5  4  0
  3  6  4  0
  4 21  4  0
  4 29  4  0
  5 15  4  0
  5 28  1  0
  6 16  4  0
  7 18  4  0
  7 26  4  0
  8 18  1  0
  8 19  4  0
  8 22  4  0
  9 12  4  0
  9 19  4  0
 10 12  4  0
 10 22  4  0
 11 20  4  0
 11 21  4  0
 12 23  1  0
 13 20  4  0
 13 29  4  0
 14 17  4  0
 14 28  4  0
 15 25  2  0
 16 27  4  0
 17 18  4  0
 20 27  1  0
 24 27  4  0
 26 28  4  0
M  END
$$$$

 Created by Python create_sdf_string function

 29 33  0  0  0  0  0  0  0  0999 V2000
    8.8270   -7.0288   18.4251 C   0  0  0  0  0  0  0  0  0  0  0  0
    9.1576   -4.6236   15.8860 O   0  0  0  0  0  0  0  0  0  0  0  0
    9.1509   -5.9108   17.7177 C   0  0  0  0  0  0  0  0  0  0  0  0
    3.6373   -9.5349   16.0582 N   0  0  0  0  0  0  0  0  0  0  0  0
    9.9275   -4.8001   18.0438 N   0  0  0  0  0  0  0  0  0  0  0  0
    8.5908   -5.7425   16.4412 C   0  0  0  0  0  0  0  0  0  0  0  0
   10.5993   -4.8981   21.6068 C   0  0  0  0  0  0  0  0  0  0  0  0
   10.4258   -3.0106   23.0998 C   0  0  0  0  0  0  0  0  0  0  0  0
   10.2148   -3.4364   25.4200 C   0  0  0  0  0  0  0  0  0  0  0  0
    9.7853   -1.1840   24.4927 C   0  0  0  0  0  0  0  0  0  0  0  0
    5.0276   -8.5227   17.5352 C   0  0  0  0  0  0  0  0  0  0  0  0
    9.8187   -2.0895   25.5800 C   0  0  0  0  0  0  0  0  0  0  0  0
    5.6473   -8.7216   15.3158 C   0  0  0  0  0  0  0  0  0  0  0  0
   10.7581   -3.1233   19.4720 N   0  0  0  0  0  0  0  0  0  0  0  0
    9.9571   -4.0573   16.8866 C   0  0  0  0  0  0  0  0  0  0  0  0
    7.6213   -6.5618   16.0087 C   0  0  0  0  0  0  0  0  0  0  0  0
   10.8583   -2.6527   20.7222 C   0  0  0  0  0  0  0  0  0  0  0  0
   10.6412   -3.5089   21.7936 C   0  0  0  0  0  0  0  0  0  0  0  0
   10.4972   -3.8968   24.1589 C   0  0  0  0  0  0  0  0  0  0  0  0
    5.9260   -8.2736   16.5517 C   0  0  0  0  0  0  0  0  0  0  0  0
    3.8816   -9.1166   17.2493 C   0  0  0  0  0  0  0  0  0  0  0  0
   10.1297   -1.6575   23.2324 C   0  0  0  0  0  0  0  0  0  0  0  0
    9.4684   -1.6929   26.7263 F   0  0  0  0  0  0  0  0  0  0  0  0
    7.7963   -7.7906   17.9837 C   0  0  0  0  0  0  0  0  0  0  0  0
   10.5884   -3.0725   16.7902 O   0  0  0  0  0  0  0  0  0  0  0  0
   10.4323   -5.3494   20.3516 C   0  0  0  0  0  0  0  0  0  0  0  0
    7.1156   -7.5454   16.8218 C   0  0  0  0  0  0  0  0  0  0  0  0
   10.3885   -4.4388   19.2773 C   0  0  0  0  0  0  0  0  0  0  0  0
    4.5160   -9.3822   15.0841 C   0  0  0  0  0  0  0  0  0  0  0  0
  1  3  4  0
  1 24  4  0
  2  6  4  0
  2 15  4  0
  3  5  4  0
  3  6  4  0
  4 21  4  0
  4 29  4  0
  5 15  4  0
  5 28  1  0
  6 16  4  0
  7 18  4  0
  7 26  4  0
  8 18  1  0
  8 19  4  0
  8 22  4  0
  9 12  4  0
  9 19  4  0
 10 12  4  0
 10 22  4  0
 11 20  4  0
 11 21  4  0
 12 23  1  0
 13 20  4  0
 13 29  4  0
 14 17  4  0
 14 28  4  0
 15 25  2  0
 16 27  4  0
 17 18  4  0
 20 27  1  0
 24 27  4  0
 26 28  4  0
M  END
$$$$

 Created by Python create_sdf_string function

 29 33  0  0  0  0  0  0  0  0999 V2000
    8.8270   -7.0288   18.4251 C   0  0  0  0  0  0  0  0  0  0  0  0
    9.1576   -4.6236   15.8860 O   0  0  0  0  0  0  0  0  0  0  0  0
    9.1509   -5.9108   17.7177 C   0  0  0  0  0  0  0  0  0  0  0  0
    3.6373   -9.5349   16.0582 N   0  0  0  0  0  0  0  0  0  0  0  0
    9.9275   -4.8001   18.0438 N   0  0  0  0  0  0  0  0  0  0  0  0
    8.5908   -5.7425   16.4412 C   0  0  0  0  0  0  0  0  0  0  0  0
   10.5993   -4.8981   21.6068 C   0  0  0  0  0  0  0  0  0  0  0  0
   10.4258   -3.0106   23.0998 C   0  0  0  0  0  0  0  0  0  0  0  0
   10.2148   -3.4364   25.4200 C   0  0  0  0  0  0  0  0  0  0  0  0
    9.7853   -1.1840   24.4927 C   0  0  0  0  0  0  0  0  0  0  0  0
    5.0276   -8.5227   17.5352 C   0  0  0  0  0  0  0  0  0  0  0  0
    9.8187   -2.0895   25.5800 C   0  0  0  0  0  0  0  0  0  0  0  0
    5.6473   -8.7216   15.3158 C   0  0  0  0  0  0  0  0  0  0  0  0
   10.7581   -3.1233   19.4720 N   0  0  0  0  0  0  0  0  0  0  0  0
    9.9571   -4.0573   16.8866 C   0  0  0  0  0  0  0  0  0  0  0  0
    7.6213   -6.5618   16.0087 C   0  0  0  0  0  0  0  0  0  0  0  0
   10.8583   -2.6527   20.7222 C   0  0  0  0  0  0  0  0  0  0  0  0
   10.6412   -3.5089   21.7936 C   0  0  0  0  0  0  0  0  0  0  0  0
   10.4972   -3.8968   24.1589 C   0  0  0  0  0  0  0  0  0  0  0  0
    5.9260   -8.2736   16.5517 C   0  0  0  0  0  0  0  0  0  0  0  0
    3.8816   -9.1166   17.2493 C   0  0  0  0  0  0  0  0  0  0  0  0
   10.1297   -1.6575   23.2324 C   0  0  0  0  0  0  0  0  0  0  0  0
    9.4684   -1.6929   26.7263 F   0  0  0  0  0  0  0  0  0  0  0  0
    7.7963   -7.7906   17.9837 C   0  0  0  0  0  0  0  0  0  0  0  0
   10.5884   -3.0725   16.7902 O   0  0  0  0  0  0  0  0  0  0  0  0
   10.4323   -5.3494   20.3516 C   0  0  0  0  0  0  0  0  0  0  0  0
    7.1156   -7.5454   16.8218 C   0  0  0  0  0  0  0  0  0  0  0  0
   10.3885   -4.4388   19.2773 C   0  0  0  0  0  0  0  0  0  0  0  0
    4.5160   -9.3822   15.0841 C   0  0  0  0  0  0  0  0  0  0  0  0
  1  3  4  0
  1 24  4  0
  2  6  4  0
  2 15  4  0
  3  5  4  0
  3  6  4  0
  4 21  4  0
  4 29  4  0
  5 15  4  0
  5 28  1  0
  6 16  4  0
  7 18  4  0
  7 26  4  0
  8 18  1  0
  8 19  4  0
  8 22  4  0
  9 12  4  0
  9 19  4  0
 10 12  4  0
 10 22  4  0
 11 20  4  0
 11 21  4  0
 12 23  1  0
 13 20  4  0
 13 29  4  0
 14 17  4  0
 14 28  4  0
 15 25  2  0
 16 27  4  0
 17 18  4  0
 20 27  1  0
 24 27  4  0
 26 28  4  0
M  END
$$$$

 Created by Python create_sdf_string function

 29 33  0  0  0  0  0  0  0  0999 V2000
    8.8270   -7.0288   18.4251 C   0  0  0  0  0  0  0  0  0  0  0  0
    9.1576   -4.6236   15.8860 O   0  0  0  0  0  0  0  0  0  0  0  0
    9.1509   -5.9108   17.7177 C   0  0  0  0  0  0  0  0  0  0  0  0
    3.6373   -9.5349   16.0582 N   0  0  0  0  0  0  0  0  0  0  0  0
    9.9275   -4.8001   18.0438 N   0  0  0  0  0  0  0  0  0  0  0  0
    8.5908   -5.7425   16.4412 C   0  0  0  0  0  0  0  0  0  0  0  0
   10.5993   -4.8981   21.6068 C   0  0  0  0  0  0  0  0  0  0  0  0
   10.4258   -3.0106   23.0998 C   0  0  0  0  0  0  0  0  0  0  0  0
   10.2148   -3.4364   25.4200 C   0  0  0  0  0  0  0  0  0  0  0  0
    9.7853   -1.1840   24.4927 C   0  0  0  0  0  0  0  0  0  0  0  0
    5.0276   -8.5227   17.5352 C   0  0  0  0  0  0  0  0  0  0  0  0
    9.8187   -2.0895   25.5800 C   0  0  0  0  0  0  0  0  0  0  0  0
    5.6473   -8.7216   15.3158 C   0  0  0  0  0  0  0  0  0  0  0  0
   10.7581   -3.1233   19.4720 N   0  0  0  0  0  0  0  0  0  0  0  0
    9.9571   -4.0573   16.8866 C   0  0  0  0  0  0  0  0  0  0  0  0
    7.6213   -6.5618   16.0087 C   0  0  0  0  0  0  0  0  0  0  0  0
   10.8583   -2.6527   20.7222 C   0  0  0  0  0  0  0  0  0  0  0  0
   10.6412   -3.5089   21.7936 C   0  0  0  0  0  0  0  0  0  0  0  0
   10.4972   -3.8968   24.1589 C   0  0  0  0  0  0  0  0  0  0  0  0
    5.9260   -8.2736   16.5517 C   0  0  0  0  0  0  0  0  0  0  0  0
    3.8816   -9.1166   17.2493 C   0  0  0  0  0  0  0  0  0  0  0  0
   10.1297   -1.6575   23.2324 C   0  0  0  0  0  0  0  0  0  0  0  0
    9.4684   -1.6929   26.7263 F   0  0  0  0  0  0  0  0  0  0  0  0
    7.7963   -7.7906   17.9837 C   0  0  0  0  0  0  0  0  0  0  0  0
   10.5884   -3.0725   16.7902 O   0  0  0  0  0  0  0  0  0  0  0  0
   10.4323   -5.3494   20.3516 C   0  0  0  0  0  0  0  0  0  0  0  0
    7.1156   -7.5454   16.8218 C   0  0  0  0  0  0  0  0  0  0  0  0
   10.3885   -4.4388   19.2773 C   0  0  0  0  0  0  0  0  0  0  0  0
    4.5160   -9.3822   15.0841 C   0  0  0  0  0  0  0  0  0  0  0  0
  1  3  4  0
  1 24  4  0
  2  6  4  0
  2 15  4  0
  3  5  4  0
  3  6  4  0
  4 21  4  0
  4 29  4  0
  5 15  4  0
  5 28  1  0
  6 16  4  0
  7 18  4  0
  7 26  4  0
  8 18  1  0
  8 19  4  0
  8 22  4  0
  9 12  4  0
  9 19  4  0
 10 12  4  0
 10 22  4  0
 11 20  4  0
 11 21  4  0
 12 23  1  0
 13 20  4  0
 13 29  4  0
 14 17  4  0
 14 28  4  0
 15 25  2  0
 16 27  4  0
 17 18  4  0
 20 27  1  0
 24 27  4  0
 26 28  4  0
M  END
$$$$

 Created by Python create_sdf_string function

 29 33  0  0  0  0  0  0  0  0999 V2000
    8.8270   -7.0288   18.4251 C   0  0  0  0  0  0  0  0  0  0  0  0
    9.1576   -4.6236   15.8860 O   0  0  0  0  0  0  0  0  0  0  0  0
    9.1509   -5.9108   17.7177 C   0  0  0  0  0  0  0  0  0  0  0  0
    3.6373   -9.5349   16.0582 N   0  0  0  0  0  0  0  0  0  0  0  0
    9.9275   -4.8001   18.0438 N   0  0  0  0  0  0  0  0  0  0  0  0
    8.5908   -5.7425   16.4412 C   0  0  0  0  0  0  0  0  0  0  0  0
   10.5993   -4.8981   21.6068 C   0  0  0  0  0  0  0  0  0  0  0  0
   10.4258   -3.0106   23.0998 C   0  0  0  0  0  0  0  0  0  0  0  0
   10.2148   -3.4364   25.4200 C   0  0  0  0  0  0  0  0  0  0  0  0
    9.7853   -1.1840   24.4927 C   0  0  0  0  0  0  0  0  0  0  0  0
    5.0276   -8.5227   17.5352 C   0  0  0  0  0  0  0  0  0  0  0  0
    9.8187   -2.0895   25.5800 C   0  0  0  0  0  0  0  0  0  0  0  0
    5.6473   -8.7216   15.3158 C   0  0  0  0  0  0  0  0  0  0  0  0
   10.7581   -3.1233   19.4720 N   0  0  0  0  0  0  0  0  0  0  0  0
    9.9571   -4.0573   16.8866 C   0  0  0  0  0  0  0  0  0  0  0  0
    7.6213   -6.5618   16.0087 C   0  0  0  0  0  0  0  0  0  0  0  0
   10.8583   -2.6527   20.7222 C   0  0  0  0  0  0  0  0  0  0  0  0
   10.6412   -3.5089   21.7936 C   0  0  0  0  0  0  0  0  0  0  0  0
   10.4972   -3.8968   24.1589 C   0  0  0  0  0  0  0  0  0  0  0  0
    5.9260   -8.2736   16.5517 C   0  0  0  0  0  0  0  0  0  0  0  0
    3.8816   -9.1166   17.2493 C   0  0  0  0  0  0  0  0  0  0  0  0
   10.1297   -1.6575   23.2324 C   0  0  0  0  0  0  0  0  0  0  0  0
    9.4684   -1.6929   26.7263 F   0  0  0  0  0  0  0  0  0  0  0  0
    7.7963   -7.7906   17.9837 C   0  0  0  0  0  0  0  0  0  0  0  0
   10.5884   -3.0725   16.7902 O   0  0  0  0  0  0  0  0  0  0  0  0
   10.4323   -5.3494   20.3516 C   0  0  0  0  0  0  0  0  0  0  0  0
    7.1156   -7.5454   16.8218 C   0  0  0  0  0  0  0  0  0  0  0  0
   10.3885   -4.4388   19.2773 C   0  0  0  0  0  0  0  0  0  0  0  0
    4.5160   -9.3822   15.0841 C   0  0  0  0  0  0  0  0  0  0  0  0
  1  3  4  0
  1 24  4  0
  2  6  4  0
  2 15  4  0
  3  5  4  0
  3  6  4  0
  4 21  4  0
  4 29  4  0
  5 15  4  0
  5 28  1  0
  6 16  4  0
  7 18  4  0
  7 26  4  0
  8 18  1  0
  8 19  4  0
  8 22  4  0
  9 12  4  0
  9 19  4  0
 10 12  4  0
 10 22  4  0
 11 20  4  0
 11 21  4  0
 12 23  1  0
 13 20  4  0
 13 29  4  0
 14 17  4  0
 14 28  4  0
 15 25  2  0
 16 27  4  0
 17 18  4  0
 20 27  1  0
 24 27  4  0
 26 28  4  0
M  END
$$$$

 Created by Python create_sdf_string function

 29 33  0  0  0  0  0  0  0  0999 V2000
    8.8270   -7.0288   18.4251 C   0  0  0  0  0  0  0  0  0  0  0  0
    9.1576   -4.6236   15.8860 O   0  0  0  0  0  0  0  0  0  0  0  0
    9.1509   -5.9108   17.7177 C   0  0  0  0  0  0  0  0  0  0  0  0
    3.6373   -9.5349   16.0582 N   0  0  0  0  0  0  0  0  0  0  0  0
    9.9275   -4.8001   18.0438 N   0  0  0  0  0  0  0  0  0  0  0  0
    8.5908   -5.7425   16.4412 C   0  0  0  0  0  0  0  0  0  0  0  0
   10.5993   -4.8981   21.6068 C   0  0  0  0  0  0  0  0  0  0  0  0
   10.4258   -3.0106   23.0998 C   0  0  0  0  0  0  0  0  0  0  0  0
   10.2148   -3.4364   25.4200 C   0  0  0  0  0  0  0  0  0  0  0  0
    9.7853   -1.1840   24.4927 C   0  0  0  0  0  0  0  0  0  0  0  0
    5.0276   -8.5227   17.5352 C   0  0  0  0  0  0  0  0  0  0  0  0
    9.8187   -2.0895   25.5800 C   0  0  0  0  0  0  0  0  0  0  0  0
    5.6473   -8.7216   15.3158 C   0  0  0  0  0  0  0  0  0  0  0  0
   10.7581   -3.1233   19.4720 N   0  0  0  0  0  0  0  0  0  0  0  0
    9.9571   -4.0573   16.8866 C   0  0  0  0  0  0  0  0  0  0  0  0
    7.6213   -6.5618   16.0087 C   0  0  0  0  0  0  0  0  0  0  0  0
   10.8583   -2.6527   20.7222 C   0  0  0  0  0  0  0  0  0  0  0  0
   10.6412   -3.5089   21.7936 C   0  0  0  0  0  0  0  0  0  0  0  0
   10.4972   -3.8968   24.1589 C   0  0  0  0  0  0  0  0  0  0  0  0
    5.9260   -8.2736   16.5517 C   0  0  0  0  0  0  0  0  0  0  0  0
    3.8816   -9.1166   17.2493 C   0  0  0  0  0  0  0  0  0  0  0  0
   10.1297   -1.6575   23.2324 C   0  0  0  0  0  0  0  0  0  0  0  0
    9.4684   -1.6929   26.7263 F   0  0  0  0  0  0  0  0  0  0  0  0
    7.7963   -7.7906   17.9837 C   0  0  0  0  0  0  0  0  0  0  0  0
   10.5884   -3.0725   16.7902 O   0  0  0  0  0  0  0  0  0  0  0  0
   10.4323   -5.3494   20.3516 C   0  0  0  0  0  0  0  0  0  0  0  0
    7.1156   -7.5454   16.8218 C   0  0  0  0  0  0  0  0  0  0  0  0
   10.3885   -4.4388   19.2773 C   0  0  0  0  0  0  0  0  0  0  0  0
    4.5160   -9.3822   15.0841 C   0  0  0  0  0  0  0  0  0  0  0  0
  1  3  4  0
  1 24  4  0
  2  6  4  0
  2 15  4  0
  3  5  4  0
  3  6  4  0
  4 21  4  0
  4 29  4  0
  5 15  4  0
  5 28  1  0
  6 16  4  0
  7 18  4  0
  7 26  4  0
  8 18  1  0
  8 19  4  0
  8 22  4  0
  9 12  4  0
  9 19  4  0
 10 12  4  0
 10 22  4  0
 11 20  4  0
 11 21  4  0
 12 23  1  0
 13 20  4  0
 13 29  4  0
 14 17  4  0
 14 28  4  0
 15 25  2  0
 16 27  4  0
 17 18  4  0
 20 27  1  0
 24 27  4  0
 26 28  4  0
M  END
$$$$

 Created by Python create_sdf_string function

 29 33  0  0  0  0  0  0  0  0999 V2000
    8.8270   -7.0288   18.4251 C   0  0  0  0  0  0  0  0  0  0  0  0
    9.1576   -4.6236   15.8860 O   0  0  0  0  0  0  0  0  0  0  0  0
    9.1509   -5.9108   17.7177 C   0  0  0  0  0  0  0  0  0  0  0  0
    3.6373   -9.5349   16.0582 N   0  0  0  0  0  0  0  0  0  0  0  0
    9.9275   -4.8001   18.0438 N   0  0  0  0  0  0  0  0  0  0  0  0
    8.5908   -5.7425   16.4412 C   0  0  0  0  0  0  0  0  0  0  0  0
   10.5993   -4.8981   21.6068 C   0  0  0  0  0  0  0  0  0  0  0  0
   10.4258   -3.0106   23.0998 C   0  0  0  0  0  0  0  0  0  0  0  0
   10.2148   -3.4364   25.4200 C   0  0  0  0  0  0  0  0  0  0  0  0
    9.7853   -1.1840   24.4927 C   0  0  0  0  0  0  0  0  0  0  0  0
    5.0276   -8.5227   17.5352 C   0  0  0  0  0  0  0  0  0  0  0  0
    9.8187   -2.0895   25.5800 C   0  0  0  0  0  0  0  0  0  0  0  0
    5.6473   -8.7216   15.3158 C   0  0  0  0  0  0  0  0  0  0  0  0
   10.7581   -3.1233   19.4720 N   0  0  0  0  0  0  0  0  0  0  0  0
    9.9571   -4.0573   16.8866 C   0  0  0  0  0  0  0  0  0  0  0  0
    7.6213   -6.5618   16.0087 C   0  0  0  0  0  0  0  0  0  0  0  0
   10.8583   -2.6527   20.7222 C   0  0  0  0  0  0  0  0  0  0  0  0
   10.6412   -3.5089   21.7936 C   0  0  0  0  0  0  0  0  0  0  0  0
   10.4972   -3.8968   24.1589 C   0  0  0  0  0  0  0  0  0  0  0  0
    5.9260   -8.2736   16.5517 C   0  0  0  0  0  0  0  0  0  0  0  0
    3.8816   -9.1166   17.2493 C   0  0  0  0  0  0  0  0  0  0  0  0
   10.1297   -1.6575   23.2324 C   0  0  0  0  0  0  0  0  0  0  0  0
    9.4684   -1.6929   26.7263 F   0  0  0  0  0  0  0  0  0  0  0  0
    7.7963   -7.7906   17.9837 C   0  0  0  0  0  0  0  0  0  0  0  0
   10.5884   -3.0725   16.7902 O   0  0  0  0  0  0  0  0  0  0  0  0
   10.4323   -5.3494   20.3516 C   0  0  0  0  0  0  0  0  0  0  0  0
    7.1156   -7.5454   16.8218 C   0  0  0  0  0  0  0  0  0  0  0  0
   10.3885   -4.4388   19.2773 C   0  0  0  0  0  0  0  0  0  0  0  0
    4.5160   -9.3822   15.0841 C   0  0  0  0  0  0  0  0  0  0  0  0
  1  3  4  0
  1 24  4  0
  2  6  4  0
  2 15  4  0
  3  5  4  0
  3  6  4  0
  4 21  4  0
  4 29  4  0
  5 15  4  0
  5 28  1  0
  6 16  4  0
  7 18  4  0
  7 26  4  0
  8 18  1  0
  8 19  4  0
  8 22  4  0
  9 12  4  0
  9 19  4  0
 10 12  4  0
 10 22  4  0
 11 20  4  0
 11 21  4  0
 12 23  1  0
 13 20  4  0
 13 29  4  0
 14 17  4  0
 14 28  4  0
 15 25  2  0
 16 27  4  0
 17 18  4  0
 20 27  1  0
 24 27  4  0
 26 28  4  0
M  END
$$$$

 Created by Python create_sdf_string function

 29 33  0  0  0  0  0  0  0  0999 V2000
    8.8270   -7.0288   18.4251 C   0  0  0  0  0  0  0  0  0  0  0  0
    9.1576   -4.6236   15.8860 O   0  0  0  0  0  0  0  0  0  0  0  0
    9.1509   -5.9108   17.7177 C   0  0  0  0  0  0  0  0  0  0  0  0
    3.6373   -9.5349   16.0582 N   0  0  0  0  0  0  0  0  0  0  0  0
    9.9275   -4.8001   18.0438 N   0  0  0  0  0  0  0  0  0  0  0  0
    8.5908   -5.7425   16.4412 C   0  0  0  0  0  0  0  0  0  0  0  0
   10.5993   -4.8981   21.6068 C   0  0  0  0  0  0  0  0  0  0  0  0
   10.4258   -3.0106   23.0998 C   0  0  0  0  0  0  0  0  0  0  0  0
   10.2148   -3.4364   25.4200 C   0  0  0  0  0  0  0  0  0  0  0  0
    9.7853   -1.1840   24.4927 C   0  0  0  0  0  0  0  0  0  0  0  0
    5.0276   -8.5227   17.5352 C   0  0  0  0  0  0  0  0  0  0  0  0
    9.8187   -2.0895   25.5800 C   0  0  0  0  0  0  0  0  0  0  0  0
    5.6473   -8.7216   15.3158 C   0  0  0  0  0  0  0  0  0  0  0  0
   10.7581   -3.1233   19.4720 N   0  0  0  0  0  0  0  0  0  0  0  0
    9.9571   -4.0573   16.8866 C   0  0  0  0  0  0  0  0  0  0  0  0
    7.6213   -6.5618   16.0087 C   0  0  0  0  0  0  0  0  0  0  0  0
   10.8583   -2.6527   20.7222 C   0  0  0  0  0  0  0  0  0  0  0  0
   10.6412   -3.5089   21.7936 C   0  0  0  0  0  0  0  0  0  0  0  0
   10.4972   -3.8968   24.1589 C   0  0  0  0  0  0  0  0  0  0  0  0
    5.9260   -8.2736   16.5517 C   0  0  0  0  0  0  0  0  0  0  0  0
    3.8816   -9.1166   17.2493 C   0  0  0  0  0  0  0  0  0  0  0  0
   10.1297   -1.6575   23.2324 C   0  0  0  0  0  0  0  0  0  0  0  0
    9.4684   -1.6929   26.7263 F   0  0  0  0  0  0  0  0  0  0  0  0
    7.7963   -7.7906   17.9837 C   0  0  0  0  0  0  0  0  0  0  0  0
   10.5884   -3.0725   16.7902 O   0  0  0  0  0  0  0  0  0  0  0  0
   10.4323   -5.3494   20.3516 C   0  0  0  0  0  0  0  0  0  0  0  0
    7.1156   -7.5454   16.8218 C   0  0  0  0  0  0  0  0  0  0  0  0
   10.3885   -4.4388   19.2773 C   0  0  0  0  0  0  0  0  0  0  0  0
    4.5160   -9.3822   15.0841 C   0  0  0  0  0  0  0  0  0  0  0  0
  1  3  4  0
  1 24  4  0
  2  6  4  0
  2 15  4  0
  3  5  4  0
  3  6  4  0
  4 21  4  0
  4 29  4  0
  5 15  4  0
  5 28  1  0
  6 16  4  0
  7 18  4  0
  7 26  4  0
  8 18  1  0
  8 19  4  0
  8 22  4  0
  9 12  4  0
  9 19  4  0
 10 12  4  0
 10 22  4  0
 11 20  4  0
 11 21  4  0
 12 23  1  0
 13 20  4  0
 13 29  4  0
 14 17  4  0
 14 28  4  0
 15 25  2  0
 16 27  4  0
 17 18  4  0
 20 27  1  0
 24 27  4  0
 26 28  4  0
M  END
$$$$

 Created by Python create_sdf_string function

 29 33  0  0  0  0  0  0  0  0999 V2000
    8.8270   -7.0288   18.4251 C   0  0  0  0  0  0  0  0  0  0  0  0
    9.1576   -4.6236   15.8860 O   0  0  0  0  0  0  0  0  0  0  0  0
    9.1509   -5.9108   17.7177 C   0  0  0  0  0  0  0  0  0  0  0  0
    3.6373   -9.5349   16.0582 N   0  0  0  0  0  0  0  0  0  0  0  0
    9.9275   -4.8001   18.0438 N   0  0  0  0  0  0  0  0  0  0  0  0
    8.5908   -5.7425   16.4412 C   0  0  0  0  0  0  0  0  0  0  0  0
   10.5993   -4.8981   21.6068 C   0  0  0  0  0  0  0  0  0  0  0  0
   10.4258   -3.0106   23.0998 C   0  0  0  0  0  0  0  0  0  0  0  0
   10.2148   -3.4364   25.4200 C   0  0  0  0  0  0  0  0  0  0  0  0
    9.7853   -1.1840   24.4927 C   0  0  0  0  0  0  0  0  0  0  0  0
    5.0276   -8.5227   17.5352 C   0  0  0  0  0  0  0  0  0  0  0  0
    9.8187   -2.0895   25.5800 C   0  0  0  0  0  0  0  0  0  0  0  0
    5.6473   -8.7216   15.3158 C   0  0  0  0  0  0  0  0  0  0  0  0
   10.7581   -3.1233   19.4720 N   0  0  0  0  0  0  0  0  0  0  0  0
    9.9571   -4.0573   16.8866 C   0  0  0  0  0  0  0  0  0  0  0  0
    7.6213   -6.5618   16.0087 C   0  0  0  0  0  0  0  0  0  0  0  0
   10.8583   -2.6527   20.7222 C   0  0  0  0  0  0  0  0  0  0  0  0
   10.6412   -3.5089   21.7936 C   0  0  0  0  0  0  0  0  0  0  0  0
   10.4972   -3.8968   24.1589 C   0  0  0  0  0  0  0  0  0  0  0  0
    5.9260   -8.2736   16.5517 C   0  0  0  0  0  0  0  0  0  0  0  0
    3.8816   -9.1166   17.2493 C   0  0  0  0  0  0  0  0  0  0  0  0
   10.1297   -1.6575   23.2324 C   0  0  0  0  0  0  0  0  0  0  0  0
    9.4684   -1.6929   26.7263 F   0  0  0  0  0  0  0  0  0  0  0  0
    7.7963   -7.7906   17.9837 C   0  0  0  0  0  0  0  0  0  0  0  0
   10.5884   -3.0725   16.7902 O   0  0  0  0  0  0  0  0  0  0  0  0
   10.4323   -5.3494   20.3516 C   0  0  0  0  0  0  0  0  0  0  0  0
    7.1156   -7.5454   16.8218 C   0  0  0  0  0  0  0  0  0  0  0  0
   10.3885   -4.4388   19.2773 C   0  0  0  0  0  0  0  0  0  0  0  0
    4.5160   -9.3822   15.0841 C   0  0  0  0  0  0  0  0  0  0  0  0
  1  3  4  0
  1 24  4  0
  2  6  4  0
  2 15  4  0
  3  5  4  0
  3  6  4  0
  4 21  4  0
  4 29  4  0
  5 15  4  0
  5 28  1  0
  6 16  4  0
  7 18  4  0
  7 26  4  0
  8 18  1  0
  8 19  4  0
  8 22  4  0
  9 12  4  0
  9 19  4  0
 10 12  4  0
 10 22  4  0
 11 20  4  0
 11 21  4  0
 12 23  1  0
 13 20  4  0
 13 29  4  0
 14 17  4  0
 14 28  4  0
 15 25  2  0
 16 27  4  0
 17 18  4  0
 20 27  1  0
 24 27  4  0
 26 28  4  0
M  END
$$$$

 Created by Python create_sdf_string function

 29 33  0  0  0  0  0  0  0  0999 V2000
    8.8270   -7.0288   18.4251 C   0  0  0  0  0  0  0  0  0  0  0  0
    9.1576   -4.6236   15.8860 O   0  0  0  0  0  0  0  0  0  0  0  0
    9.1509   -5.9108   17.7177 C   0  0  0  0  0  0  0  0  0  0  0  0
    3.6373   -9.5349   16.0582 N   0  0  0  0  0  0  0  0  0  0  0  0
    9.9275   -4.8001   18.0438 N   0  0  0  0  0  0  0  0  0  0  0  0
    8.5908   -5.7425   16.4412 C   0  0  0  0  0  0  0  0  0  0  0  0
   10.5993   -4.8981   21.6068 C   0  0  0  0  0  0  0  0  0  0  0  0
   10.4258   -3.0106   23.0998 C   0  0  0  0  0  0  0  0  0  0  0  0
   10.2148   -3.4364   25.4200 C   0  0  0  0  0  0  0  0  0  0  0  0
    9.7853   -1.1840   24.4927 C   0  0  0  0  0  0  0  0  0  0  0  0
    5.0276   -8.5227   17.5352 C   0  0  0  0  0  0  0  0  0  0  0  0
    9.8187   -2.0895   25.5800 C   0  0  0  0  0  0  0  0  0  0  0  0
    5.6473   -8.7216   15.3158 C   0  0  0  0  0  0  0  0  0  0  0  0
   10.7581   -3.1233   19.4720 N   0  0  0  0  0  0  0  0  0  0  0  0
    9.9571   -4.0573   16.8866 C   0  0  0  0  0  0  0  0  0  0  0  0
    7.6213   -6.5618   16.0087 C   0  0  0  0  0  0  0  0  0  0  0  0
   10.8583   -2.6527   20.7222 C   0  0  0  0  0  0  0  0  0  0  0  0
   10.6412   -3.5089   21.7936 C   0  0  0  0  0  0  0  0  0  0  0  0
   10.4972   -3.8968   24.1589 C   0  0  0  0  0  0  0  0  0  0  0  0
    5.9260   -8.2736   16.5517 C   0  0  0  0  0  0  0  0  0  0  0  0
    3.8816   -9.1166   17.2493 C   0  0  0  0  0  0  0  0  0  0  0  0
   10.1297   -1.6575   23.2324 C   0  0  0  0  0  0  0  0  0  0  0  0
    9.4684   -1.6929   26.7263 F   0  0  0  0  0  0  0  0  0  0  0  0
    7.7963   -7.7906   17.9837 C   0  0  0  0  0  0  0  0  0  0  0  0
   10.5884   -3.0725   16.7902 O   0  0  0  0  0  0  0  0  0  0  0  0
   10.4323   -5.3494   20.3516 C   0  0  0  0  0  0  0  0  0  0  0  0
    7.1156   -7.5454   16.8218 C   0  0  0  0  0  0  0  0  0  0  0  0
   10.3885   -4.4388   19.2773 C   0  0  0  0  0  0  0  0  0  0  0  0
    4.5160   -9.3822   15.0841 C   0  0  0  0  0  0  0  0  0  0  0  0
  1  3  4  0
  1 24  4  0
  2  6  4  0
  2 15  4  0
  3  5  4  0
  3  6  4  0
  4 21  4  0
  4 29  4  0
  5 15  4  0
  5 28  1  0
  6 16  4  0
  7 18  4  0
  7 26  4  0
  8 18  1  0
  8 19  4  0
  8 22  4  0
  9 12  4  0
  9 19  4  0
 10 12  4  0
 10 22  4  0
 11 20  4  0
 11 21  4  0
 12 23  1  0
 13 20  4  0
 13 29  4  0
 14 17  4  0
 14 28  4  0
 15 25  2  0
 16 27  4  0
 17 18  4  0
 20 27  1  0
 24 27  4  0
 26 28  4  0
M  END
$$$$

 Created by Python create_sdf_string function

 29 33  0  0  0  0  0  0  0  0999 V2000
    8.8270   -7.0288   18.4251 C   0  0  0  0  0  0  0  0  0  0  0  0
    9.1576   -4.6236   15.8860 O   0  0  0  0  0  0  0  0  0  0  0  0
    9.1509   -5.9108   17.7177 C   0  0  0  0  0  0  0  0  0  0  0  0
    3.6373   -9.5349   16.0582 N   0  0  0  0  0  0  0  0  0  0  0  0
    9.9275   -4.8001   18.0438 N   0  0  0  0  0  0  0  0  0  0  0  0
    8.5908   -5.7425   16.4412 C   0  0  0  0  0  0  0  0  0  0  0  0
   10.5993   -4.8981   21.6068 C   0  0  0  0  0  0  0  0  0  0  0  0
   10.4258   -3.0106   23.0998 C   0  0  0  0  0  0  0  0  0  0  0  0
   10.2148   -3.4364   25.4200 C   0  0  0  0  0  0  0  0  0  0  0  0
    9.7853   -1.1840   24.4927 C   0  0  0  0  0  0  0  0  0  0  0  0
    5.0276   -8.5227   17.5352 C   0  0  0  0  0  0  0  0  0  0  0  0
    9.8187   -2.0895   25.5800 C   0  0  0  0  0  0  0  0  0  0  0  0
    5.6473   -8.7216   15.3158 C   0  0  0  0  0  0  0  0  0  0  0  0
   10.7581   -3.1233   19.4720 N   0  0  0  0  0  0  0  0  0  0  0  0
    9.9571   -4.0573   16.8866 C   0  0  0  0  0  0  0  0  0  0  0  0
    7.6213   -6.5618   16.0087 C   0  0  0  0  0  0  0  0  0  0  0  0
   10.8583   -2.6527   20.7222 C   0  0  0  0  0  0  0  0  0  0  0  0
   10.6412   -3.5089   21.7936 C   0  0  0  0  0  0  0  0  0  0  0  0
   10.4972   -3.8968   24.1589 C   0  0  0  0  0  0  0  0  0  0  0  0
    5.9260   -8.2736   16.5517 C   0  0  0  0  0  0  0  0  0  0  0  0
    3.8816   -9.1166   17.2493 C   0  0  0  0  0  0  0  0  0  0  0  0
   10.1297   -1.6575   23.2324 C   0  0  0  0  0  0  0  0  0  0  0  0
    9.4684   -1.6929   26.7263 F   0  0  0  0  0  0  0  0  0  0  0  0
    7.7963   -7.7906   17.9837 C   0  0  0  0  0  0  0  0  0  0  0  0
   10.5884   -3.0725   16.7902 O   0  0  0  0  0  0  0  0  0  0  0  0
   10.4323   -5.3494   20.3516 C   0  0  0  0  0  0  0  0  0  0  0  0
    7.1156   -7.5454   16.8218 C   0  0  0  0  0  0  0  0  0  0  0  0
   10.3885   -4.4388   19.2773 C   0  0  0  0  0  0  0  0  0  0  0  0
    4.5160   -9.3822   15.0841 C   0  0  0  0  0  0  0  0  0  0  0  0
  1  3  4  0
  1 24  4  0
  2  6  4  0
  2 15  4  0
  3  5  4  0
  3  6  4  0
  4 21  4  0
  4 29  4  0
  5 15  4  0
  5 28  1  0
  6 16  4  0
  7 18  4  0
  7 26  4  0
  8 18  1  0
  8 19  4  0
  8 22  4  0
  9 12  4  0
  9 19  4  0
 10 12  4  0
 10 22  4  0
 11 20  4  0
 11 21  4  0
 12 23  1  0
 13 20  4  0
 13 29  4  0
 14 17  4  0
 14 28  4  0
 15 25  2  0
 16 27  4  0
 17 18  4  0
 20 27  1  0
 24 27  4  0
 26 28  4  0
M  END
$$$$

 Created by Python create_sdf_string function

 29 33  0  0  0  0  0  0  0  0999 V2000
    8.8270   -7.0288   18.4251 C   0  0  0  0  0  0  0  0  0  0  0  0
    9.1576   -4.6236   15.8860 O   0  0  0  0  0  0  0  0  0  0  0  0
    9.1509   -5.9108   17.7177 C   0  0  0  0  0  0  0  0  0  0  0  0
    3.6373   -9.5349   16.0582 N   0  0  0  0  0  0  0  0  0  0  0  0
    9.9275   -4.8001   18.0438 N   0  0  0  0  0  0  0  0  0  0  0  0
    8.5908   -5.7425   16.4412 C   0  0  0  0  0  0  0  0  0  0  0  0
   10.5993   -4.8981   21.6068 C   0  0  0  0  0  0  0  0  0  0  0  0
   10.4258   -3.0106   23.0998 C   0  0  0  0  0  0  0  0  0  0  0  0
   10.2148   -3.4364   25.4200 C   0  0  0  0  0  0  0  0  0  0  0  0
    9.7853   -1.1840   24.4927 C   0  0  0  0  0  0  0  0  0  0  0  0
    5.0276   -8.5227   17.5352 C   0  0  0  0  0  0  0  0  0  0  0  0
    9.8187   -2.0895   25.5800 C   0  0  0  0  0  0  0  0  0  0  0  0
    5.6473   -8.7216   15.3158 C   0  0  0  0  0  0  0  0  0  0  0  0
   10.7581   -3.1233   19.4720 N   0  0  0  0  0  0  0  0  0  0  0  0
    9.9571   -4.0573   16.8866 C   0  0  0  0  0  0  0  0  0  0  0  0
    7.6213   -6.5618   16.0087 C   0  0  0  0  0  0  0  0  0  0  0  0
   10.8583   -2.6527   20.7222 C   0  0  0  0  0  0  0  0  0  0  0  0
   10.6412   -3.5089   21.7936 C   0  0  0  0  0  0  0  0  0  0  0  0
   10.4972   -3.8968   24.1589 C   0  0  0  0  0  0  0  0  0  0  0  0
    5.9260   -8.2736   16.5517 C   0  0  0  0  0  0  0  0  0  0  0  0
    3.8816   -9.1166   17.2493 C   0  0  0  0  0  0  0  0  0  0  0  0
   10.1297   -1.6575   23.2324 C   0  0  0  0  0  0  0  0  0  0  0  0
    9.4684   -1.6929   26.7263 F   0  0  0  0  0  0  0  0  0  0  0  0
    7.7963   -7.7906   17.9837 C   0  0  0  0  0  0  0  0  0  0  0  0
   10.5884   -3.0725   16.7902 O   0  0  0  0  0  0  0  0  0  0  0  0
   10.4323   -5.3494   20.3516 C   0  0  0  0  0  0  0  0  0  0  0  0
    7.1156   -7.5454   16.8218 C   0  0  0  0  0  0  0  0  0  0  0  0
   10.3885   -4.4388   19.2773 C   0  0  0  0  0  0  0  0  0  0  0  0
    4.5160   -9.3822   15.0841 C   0  0  0  0  0  0  0  0  0  0  0  0
  1  3  4  0
  1 24  4  0
  2  6  4  0
  2 15  4  0
  3  5  4  0
  3  6  4  0
  4 21  4  0
  4 29  4  0
  5 15  4  0
  5 28  1  0
  6 16  4  0
  7 18  4  0
  7 26  4  0
  8 18  1  0
  8 19  4  0
  8 22  4  0
  9 12  4  0
  9 19  4  0
 10 12  4  0
 10 22  4  0
 11 20  4  0
 11 21  4  0
 12 23  1  0
 13 20  4  0
 13 29  4  0
 14 17  4  0
 14 28  4  0
 15 25  2  0
 16 27  4  0
 17 18  4  0
 20 27  1  0
 24 27  4  0
 26 28  4  0
M  END
$$$$

 Created by Python create_sdf_string function

 29 33  0  0  0  0  0  0  0  0999 V2000
    8.8270   -7.0288   18.4251 C   0  0  0  0  0  0  0  0  0  0  0  0
    9.1576   -4.6236   15.8860 O   0  0  0  0  0  0  0  0  0  0  0  0
    9.1509   -5.9108   17.7177 C   0  0  0  0  0  0  0  0  0  0  0  0
    3.6373   -9.5349   16.0582 N   0  0  0  0  0  0  0  0  0  0  0  0
    9.9275   -4.8001   18.0438 N   0  0  0  0  0  0  0  0  0  0  0  0
    8.5908   -5.7425   16.4412 C   0  0  0  0  0  0  0  0  0  0  0  0
   10.5993   -4.8981   21.6068 C   0  0  0  0  0  0  0  0  0  0  0  0
   10.4258   -3.0106   23.0998 C   0  0  0  0  0  0  0  0  0  0  0  0
   10.2148   -3.4364   25.4200 C   0  0  0  0  0  0  0  0  0  0  0  0
    9.7853   -1.1840   24.4927 C   0  0  0  0  0  0  0  0  0  0  0  0
    5.0276   -8.5227   17.5352 C   0  0  0  0  0  0  0  0  0  0  0  0
    9.8187   -2.0895   25.5800 C   0  0  0  0  0  0  0  0  0  0  0  0
    5.6473   -8.7216   15.3158 C   0  0  0  0  0  0  0  0  0  0  0  0
   10.7581   -3.1233   19.4720 N   0  0  0  0  0  0  0  0  0  0  0  0
    9.9571   -4.0573   16.8866 C   0  0  0  0  0  0  0  0  0  0  0  0
    7.6213   -6.5618   16.0087 C   0  0  0  0  0  0  0  0  0  0  0  0
   10.8583   -2.6527   20.7222 C   0  0  0  0  0  0  0  0  0  0  0  0
   10.6412   -3.5089   21.7936 C   0  0  0  0  0  0  0  0  0  0  0  0
   10.4972   -3.8968   24.1589 C   0  0  0  0  0  0  0  0  0  0  0  0
    5.9260   -8.2736   16.5517 C   0  0  0  0  0  0  0  0  0  0  0  0
    3.8816   -9.1166   17.2493 C   0  0  0  0  0  0  0  0  0  0  0  0
   10.1297   -1.6575   23.2324 C   0  0  0  0  0  0  0  0  0  0  0  0
    9.4684   -1.6929   26.7263 F   0  0  0  0  0  0  0  0  0  0  0  0
    7.7963   -7.7906   17.9837 C   0  0  0  0  0  0  0  0  0  0  0  0
   10.5884   -3.0725   16.7902 O   0  0  0  0  0  0  0  0  0  0  0  0
   10.4323   -5.3494   20.3516 C   0  0  0  0  0  0  0  0  0  0  0  0
    7.1156   -7.5454   16.8218 C   0  0  0  0  0  0  0  0  0  0  0  0
   10.3885   -4.4388   19.2773 C   0  0  0  0  0  0  0  0  0  0  0  0
    4.5160   -9.3822   15.0841 C   0  0  0  0  0  0  0  0  0  0  0  0
  1  3  4  0
  1 24  4  0
  2  6  4  0
  2 15  4  0
  3  5  4  0
  3  6  4  0
  4 21  4  0
  4 29  4  0
  5 15  4  0
  5 28  1  0
  6 16  4  0
  7 18  4  0
  7 26  4  0
  8 18  1  0
  8 19  4  0
  8 22  4  0
  9 12  4  0
  9 19  4  0
 10 12  4  0
 10 22  4  0
 11 20  4  0
 11 21  4  0
 12 23  1  0
 13 20  4  0
 13 29  4  0
 14 17  4  0
 14 28  4  0
 15 25  2  0
 16 27  4  0
 17 18  4  0
 20 27  1  0
 24 27  4  0
 26 28  4  0
M  END
$$$$

 Created by Python create_sdf_string function

 29 33  0  0  0  0  0  0  0  0999 V2000
    8.8270   -7.0288   18.4251 C   0  0  0  0  0  0  0  0  0  0  0  0
    9.1576   -4.6236   15.8860 O   0  0  0  0  0  0  0  0  0  0  0  0
    9.1509   -5.9108   17.7177 C   0  0  0  0  0  0  0  0  0  0  0  0
    3.6373   -9.5349   16.0582 N   0  0  0  0  0  0  0  0  0  0  0  0
    9.9275   -4.8001   18.0438 N   0  0  0  0  0  0  0  0  0  0  0  0
    8.5908   -5.7425   16.4412 C   0  0  0  0  0  0  0  0  0  0  0  0
   10.5993   -4.8981   21.6068 C   0  0  0  0  0  0  0  0  0  0  0  0
   10.4258   -3.0106   23.0998 C   0  0  0  0  0  0  0  0  0  0  0  0
   10.2148   -3.4364   25.4200 C   0  0  0  0  0  0  0  0  0  0  0  0
    9.7853   -1.1840   24.4927 C   0  0  0  0  0  0  0  0  0  0  0  0
    5.0276   -8.5227   17.5352 C   0  0  0  0  0  0  0  0  0  0  0  0
    9.8187   -2.0895   25.5800 C   0  0  0  0  0  0  0  0  0  0  0  0
    5.6473   -8.7216   15.3158 C   0  0  0  0  0  0  0  0  0  0  0  0
   10.7581   -3.1233   19.4720 N   0  0  0  0  0  0  0  0  0  0  0  0
    9.9571   -4.0573   16.8866 C   0  0  0  0  0  0  0  0  0  0  0  0
    7.6213   -6.5618   16.0087 C   0  0  0  0  0  0  0  0  0  0  0  0
   10.8583   -2.6527   20.7222 C   0  0  0  0  0  0  0  0  0  0  0  0
   10.6412   -3.5089   21.7936 C   0  0  0  0  0  0  0  0  0  0  0  0
   10.4972   -3.8968   24.1589 C   0  0  0  0  0  0  0  0  0  0  0  0
    5.9260   -8.2736   16.5517 C   0  0  0  0  0  0  0  0  0  0  0  0
    3.8816   -9.1166   17.2493 C   0  0  0  0  0  0  0  0  0  0  0  0
   10.1297   -1.6575   23.2324 C   0  0  0  0  0  0  0  0  0  0  0  0
    9.4684   -1.6929   26.7263 F   0  0  0  0  0  0  0  0  0  0  0  0
    7.7963   -7.7906   17.9837 C   0  0  0  0  0  0  0  0  0  0  0  0
   10.5884   -3.0725   16.7902 O   0  0  0  0  0  0  0  0  0  0  0  0
   10.4323   -5.3494   20.3516 C   0  0  0  0  0  0  0  0  0  0  0  0
    7.1156   -7.5454   16.8218 C   0  0  0  0  0  0  0  0  0  0  0  0
   10.3885   -4.4388   19.2773 C   0  0  0  0  0  0  0  0  0  0  0  0
    4.5160   -9.3822   15.0841 C   0  0  0  0  0  0  0  0  0  0  0  0
  1  3  4  0
  1 24  4  0
  2  6  4  0
  2 15  4  0
  3  5  4  0
  3  6  4  0
  4 21  4  0
  4 29  4  0
  5 15  4  0
  5 28  1  0
  6 16  4  0
  7 18  4  0
  7 26  4  0
  8 18  1  0
  8 19  4  0
  8 22  4  0
  9 12  4  0
  9 19  4  0
 10 12  4  0
 10 22  4  0
 11 20  4  0
 11 21  4  0
 12 23  1  0
 13 20  4  0
 13 29  4  0
 14 17  4  0
 14 28  4  0
 15 25  2  0
 16 27  4  0
 17 18  4  0
 20 27  1  0
 24 27  4  0
 26 28  4  0
M  END
$$$$

 Created by Python create_sdf_string function

 29 33  0  0  0  0  0  0  0  0999 V2000
    8.8270   -7.0288   18.4251 C   0  0  0  0  0  0  0  0  0  0  0  0
    9.1576   -4.6236   15.8860 O   0  0  0  0  0  0  0  0  0  0  0  0
    9.1509   -5.9108   17.7177 C   0  0  0  0  0  0  0  0  0  0  0  0
    3.6373   -9.5349   16.0582 N   0  0  0  0  0  0  0  0  0  0  0  0
    9.9275   -4.8001   18.0438 N   0  0  0  0  0  0  0  0  0  0  0  0
    8.5908   -5.7425   16.4412 C   0  0  0  0  0  0  0  0  0  0  0  0
   10.5993   -4.8981   21.6068 C   0  0  0  0  0  0  0  0  0  0  0  0
   10.4258   -3.0106   23.0998 C   0  0  0  0  0  0  0  0  0  0  0  0
   10.2148   -3.4364   25.4200 C   0  0  0  0  0  0  0  0  0  0  0  0
    9.7853   -1.1840   24.4927 C   0  0  0  0  0  0  0  0  0  0  0  0
    5.0276   -8.5227   17.5352 C   0  0  0  0  0  0  0  0  0  0  0  0
    9.8187   -2.0895   25.5800 C   0  0  0  0  0  0  0  0  0  0  0  0
    5.6473   -8.7216   15.3158 C   0  0  0  0  0  0  0  0  0  0  0  0
   10.7581   -3.1233   19.4720 N   0  0  0  0  0  0  0  0  0  0  0  0
    9.9571   -4.0573   16.8866 C   0  0  0  0  0  0  0  0  0  0  0  0
    7.6213   -6.5618   16.0087 C   0  0  0  0  0  0  0  0  0  0  0  0
   10.8583   -2.6527   20.7222 C   0  0  0  0  0  0  0  0  0  0  0  0
   10.6412   -3.5089   21.7936 C   0  0  0  0  0  0  0  0  0  0  0  0
   10.4972   -3.8968   24.1589 C   0  0  0  0  0  0  0  0  0  0  0  0
    5.9260   -8.2736   16.5517 C   0  0  0  0  0  0  0  0  0  0  0  0
    3.8816   -9.1166   17.2493 C   0  0  0  0  0  0  0  0  0  0  0  0
   10.1297   -1.6575   23.2324 C   0  0  0  0  0  0  0  0  0  0  0  0
    9.4684   -1.6929   26.7263 F   0  0  0  0  0  0  0  0  0  0  0  0
    7.7963   -7.7906   17.9837 C   0  0  0  0  0  0  0  0  0  0  0  0
   10.5884   -3.0725   16.7902 O   0  0  0  0  0  0  0  0  0  0  0  0
   10.4323   -5.3494   20.3516 C   0  0  0  0  0  0  0  0  0  0  0  0
    7.1156   -7.5454   16.8218 C   0  0  0  0  0  0  0  0  0  0  0  0
   10.3885   -4.4388   19.2773 C   0  0  0  0  0  0  0  0  0  0  0  0
    4.5160   -9.3822   15.0841 C   0  0  0  0  0  0  0  0  0  0  0  0
  1  3  4  0
  1 24  4  0
  2  6  4  0
  2 15  4  0
  3  5  4  0
  3  6  4  0
  4 21  4  0
  4 29  4  0
  5 15  4  0
  5 28  1  0
  6 16  4  0
  7 18  4  0
  7 26  4  0
  8 18  1  0
  8 19  4  0
  8 22  4  0
  9 12  4  0
  9 19  4  0
 10 12  4  0
 10 22  4  0
 11 20  4  0
 11 21  4  0
 12 23  1  0
 13 20  4  0
 13 29  4  0
 14 17  4  0
 14 28  4  0
 15 25  2  0
 16 27  4  0
 17 18  4  0
 20 27  1  0
 24 27  4  0
 26 28  4  0
M  END
$$$$

 Created by Python create_sdf_string function

 29 33  0  0  0  0  0  0  0  0999 V2000
    8.8270   -7.0288   18.4251 C   0  0  0  0  0  0  0  0  0  0  0  0
    9.1576   -4.6236   15.8860 O   0  0  0  0  0  0  0  0  0  0  0  0
    9.1509   -5.9108   17.7177 C   0  0  0  0  0  0  0  0  0  0  0  0
    3.6373   -9.5349   16.0582 N   0  0  0  0  0  0  0  0  0  0  0  0
    9.9275   -4.8001   18.0438 N   0  0  0  0  0  0  0  0  0  0  0  0
    8.5908   -5.7425   16.4412 C   0  0  0  0  0  0  0  0  0  0  0  0
   10.5993   -4.8981   21.6068 C   0  0  0  0  0  0  0  0  0  0  0  0
   10.4258   -3.0106   23.0998 C   0  0  0  0  0  0  0  0  0  0  0  0
   10.2148   -3.4364   25.4200 C   0  0  0  0  0  0  0  0  0  0  0  0
    9.7853   -1.1840   24.4927 C   0  0  0  0  0  0  0  0  0  0  0  0
    5.0276   -8.5227   17.5352 C   0  0  0  0  0  0  0  0  0  0  0  0
    9.8187   -2.0895   25.5800 C   0  0  0  0  0  0  0  0  0  0  0  0
    5.6473   -8.7216   15.3158 C   0  0  0  0  0  0  0  0  0  0  0  0
   10.7581   -3.1233   19.4720 N   0  0  0  0  0  0  0  0  0  0  0  0
    9.9571   -4.0573   16.8866 C   0  0  0  0  0  0  0  0  0  0  0  0
    7.6213   -6.5618   16.0087 C   0  0  0  0  0  0  0  0  0  0  0  0
   10.8583   -2.6527   20.7222 C   0  0  0  0  0  0  0  0  0  0  0  0
   10.6412   -3.5089   21.7936 C   0  0  0  0  0  0  0  0  0  0  0  0
   10.4972   -3.8968   24.1589 C   0  0  0  0  0  0  0  0  0  0  0  0
    5.9260   -8.2736   16.5517 C   0  0  0  0  0  0  0  0  0  0  0  0
    3.8816   -9.1166   17.2493 C   0  0  0  0  0  0  0  0  0  0  0  0
   10.1297   -1.6575   23.2324 C   0  0  0  0  0  0  0  0  0  0  0  0
    9.4684   -1.6929   26.7263 F   0  0  0  0  0  0  0  0  0  0  0  0
    7.7963   -7.7906   17.9837 C   0  0  0  0  0  0  0  0  0  0  0  0
   10.5884   -3.0725   16.7902 O   0  0  0  0  0  0  0  0  0  0  0  0
   10.4323   -5.3494   20.3516 C   0  0  0  0  0  0  0  0  0  0  0  0
    7.1156   -7.5454   16.8218 C   0  0  0  0  0  0  0  0  0  0  0  0
   10.3885   -4.4388   19.2773 C   0  0  0  0  0  0  0  0  0  0  0  0
    4.5160   -9.3822   15.0841 C   0  0  0  0  0  0  0  0  0  0  0  0
  1  3  4  0
  1 24  4  0
  2  6  4  0
  2 15  4  0
  3  5  4  0
  3  6  4  0
  4 21  4  0
  4 29  4  0
  5 15  4  0
  5 28  1  0
  6 16  4  0
  7 18  4  0
  7 26  4  0
  8 18  1  0
  8 19  4  0
  8 22  4  0
  9 12  4  0
  9 19  4  0
 10 12  4  0
 10 22  4  0
 11 20  4  0
 11 21  4  0
 12 23  1  0
 13 20  4  0
 13 29  4  0
 14 17  4  0
 14 28  4  0
 15 25  2  0
 16 27  4  0
 17 18  4  0
 20 27  1  0
 24 27  4  0
 26 28  4  0
M  END
$$$$

 Created by Python create_sdf_string function

 29 33  0  0  0  0  0  0  0  0999 V2000
    8.8270   -7.0288   18.4251 C   0  0  0  0  0  0  0  0  0  0  0  0
    9.1576   -4.6236   15.8860 O   0  0  0  0  0  0  0  0  0  0  0  0
    9.1509   -5.9108   17.7177 C   0  0  0  0  0  0  0  0  0  0  0  0
    3.6373   -9.5349   16.0582 N   0  0  0  0  0  0  0  0  0  0  0  0
    9.9275   -4.8001   18.0438 N   0  0  0  0  0  0  0  0  0  0  0  0
    8.5908   -5.7425   16.4412 C   0  0  0  0  0  0  0  0  0  0  0  0
   10.5993   -4.8981   21.6068 C   0  0  0  0  0  0  0  0  0  0  0  0
   10.4258   -3.0106   23.0998 C   0  0  0  0  0  0  0  0  0  0  0  0
   10.2148   -3.4364   25.4200 C   0  0  0  0  0  0  0  0  0  0  0  0
    9.7853   -1.1840   24.4927 C   0  0  0  0  0  0  0  0  0  0  0  0
    5.0276   -8.5227   17.5352 C   0  0  0  0  0  0  0  0  0  0  0  0
    9.8187   -2.0895   25.5800 C   0  0  0  0  0  0  0  0  0  0  0  0
    5.6473   -8.7216   15.3158 C   0  0  0  0  0  0  0  0  0  0  0  0
   10.7581   -3.1233   19.4720 N   0  0  0  0  0  0  0  0  0  0  0  0
    9.9571   -4.0573   16.8866 C   0  0  0  0  0  0  0  0  0  0  0  0
    7.6213   -6.5618   16.0087 C   0  0  0  0  0  0  0  0  0  0  0  0
   10.8583   -2.6527   20.7222 C   0  0  0  0  0  0  0  0  0  0  0  0
   10.6412   -3.5089   21.7936 C   0  0  0  0  0  0  0  0  0  0  0  0
   10.4972   -3.8968   24.1589 C   0  0  0  0  0  0  0  0  0  0  0  0
    5.9260   -8.2736   16.5517 C   0  0  0  0  0  0  0  0  0  0  0  0
    3.8816   -9.1166   17.2493 C   0  0  0  0  0  0  0  0  0  0  0  0
   10.1297   -1.6575   23.2324 C   0  0  0  0  0  0  0  0  0  0  0  0
    9.4684   -1.6929   26.7263 F   0  0  0  0  0  0  0  0  0  0  0  0
    7.7963   -7.7906   17.9837 C   0  0  0  0  0  0  0  0  0  0  0  0
   10.5884   -3.0725   16.7902 O   0  0  0  0  0  0  0  0  0  0  0  0
   10.4323   -5.3494   20.3516 C   0  0  0  0  0  0  0  0  0  0  0  0
    7.1156   -7.5454   16.8218 C   0  0  0  0  0  0  0  0  0  0  0  0
   10.3885   -4.4388   19.2773 C   0  0  0  0  0  0  0  0  0  0  0  0
    4.5160   -9.3822   15.0841 C   0  0  0  0  0  0  0  0  0  0  0  0
  1  3  4  0
  1 24  4  0
  2  6  4  0
  2 15  4  0
  3  5  4  0
  3  6  4  0
  4 21  4  0
  4 29  4  0
  5 15  4  0
  5 28  1  0
  6 16  4  0
  7 18  4  0
  7 26  4  0
  8 18  1  0
  8 19  4  0
  8 22  4  0
  9 12  4  0
  9 19  4  0
 10 12  4  0
 10 22  4  0
 11 20  4  0
 11 21  4  0
 12 23  1  0
 13 20  4  0
 13 29  4  0
 14 17  4  0
 14 28  4  0
 15 25  2  0
 16 27  4  0
 17 18  4  0
 20 27  1  0
 24 27  4  0
 26 28  4  0
M  END
$$$$

 Created by Python create_sdf_string function

 29 33  0  0  0  0  0  0  0  0999 V2000
    8.8270   -7.0288   18.4251 C   0  0  0  0  0  0  0  0  0  0  0  0
    9.1576   -4.6236   15.8860 O   0  0  0  0  0  0  0  0  0  0  0  0
    9.1509   -5.9108   17.7177 C   0  0  0  0  0  0  0  0  0  0  0  0
    3.6373   -9.5349   16.0582 N   0  0  0  0  0  0  0  0  0  0  0  0
    9.9275   -4.8001   18.0438 N   0  0  0  0  0  0  0  0  0  0  0  0
    8.5908   -5.7425   16.4412 C   0  0  0  0  0  0  0  0  0  0  0  0
   10.5993   -4.8981   21.6068 C   0  0  0  0  0  0  0  0  0  0  0  0
   10.4258   -3.0106   23.0998 C   0  0  0  0  0  0  0  0  0  0  0  0
   10.2148   -3.4364   25.4200 C   0  0  0  0  0  0  0  0  0  0  0  0
    9.7853   -1.1840   24.4927 C   0  0  0  0  0  0  0  0  0  0  0  0
    5.0276   -8.5227   17.5352 C   0  0  0  0  0  0  0  0  0  0  0  0
    9.8187   -2.0895   25.5800 C   0  0  0  0  0  0  0  0  0  0  0  0
    5.6473   -8.7216   15.3158 C   0  0  0  0  0  0  0  0  0  0  0  0
   10.7581   -3.1233   19.4720 N   0  0  0  0  0  0  0  0  0  0  0  0
    9.9571   -4.0573   16.8866 C   0  0  0  0  0  0  0  0  0  0  0  0
    7.6213   -6.5618   16.0087 C   0  0  0  0  0  0  0  0  0  0  0  0
   10.8583   -2.6527   20.7222 C   0  0  0  0  0  0  0  0  0  0  0  0
   10.6412   -3.5089   21.7936 C   0  0  0  0  0  0  0  0  0  0  0  0
   10.4972   -3.8968   24.1589 C   0  0  0  0  0  0  0  0  0  0  0  0
    5.9260   -8.2736   16.5517 C   0  0  0  0  0  0  0  0  0  0  0  0
    3.8816   -9.1166   17.2493 C   0  0  0  0  0  0  0  0  0  0  0  0
   10.1297   -1.6575   23.2324 C   0  0  0  0  0  0  0  0  0  0  0  0
    9.4684   -1.6929   26.7263 F   0  0  0  0  0  0  0  0  0  0  0  0
    7.7963   -7.7906   17.9837 C   0  0  0  0  0  0  0  0  0  0  0  0
   10.5884   -3.0725   16.7902 O   0  0  0  0  0  0  0  0  0  0  0  0
   10.4323   -5.3494   20.3516 C   0  0  0  0  0  0  0  0  0  0  0  0
    7.1156   -7.5454   16.8218 C   0  0  0  0  0  0  0  0  0  0  0  0
   10.3885   -4.4388   19.2773 C   0  0  0  0  0  0  0  0  0  0  0  0
    4.5160   -9.3822   15.0841 C   0  0  0  0  0  0  0  0  0  0  0  0
  1  3  4  0
  1 24  4  0
  2  6  4  0
  2 15  4  0
  3  5  4  0
  3  6  4  0
  4 21  4  0
  4 29  4  0
  5 15  4  0
  5 28  1  0
  6 16  4  0
  7 18  4  0
  7 26  4  0
  8 18  1  0
  8 19  4  0
  8 22  4  0
  9 12  4  0
  9 19  4  0
 10 12  4  0
 10 22  4  0
 11 20  4  0
 11 21  4  0
 12 23  1  0
 13 20  4  0
 13 29  4  0
 14 17  4  0
 14 28  4  0
 15 25  2  0
 16 27  4  0
 17 18  4  0
 20 27  1  0
 24 27  4  0
 26 28  4  0
M  END
$$$$

 Created by Python create_sdf_string function

 29 33  0  0  0  0  0  0  0  0999 V2000
    8.8270   -7.0288   18.4251 C   0  0  0  0  0  0  0  0  0  0  0  0
    9.1576   -4.6236   15.8860 O   0  0  0  0  0  0  0  0  0  0  0  0
    9.1509   -5.9108   17.7177 C   0  0  0  0  0  0  0  0  0  0  0  0
    3.6373   -9.5349   16.0582 N   0  0  0  0  0  0  0  0  0  0  0  0
    9.9275   -4.8001   18.0438 N   0  0  0  0  0  0  0  0  0  0  0  0
    8.5908   -5.7425   16.4412 C   0  0  0  0  0  0  0  0  0  0  0  0
   10.5993   -4.8981   21.6068 C   0  0  0  0  0  0  0  0  0  0  0  0
   10.4258   -3.0106   23.0998 C   0  0  0  0  0  0  0  0  0  0  0  0
   10.2148   -3.4364   25.4200 C   0  0  0  0  0  0  0  0  0  0  0  0
    9.7853   -1.1840   24.4927 C   0  0  0  0  0  0  0  0  0  0  0  0
    5.0276   -8.5227   17.5352 C   0  0  0  0  0  0  0  0  0  0  0  0
    9.8187   -2.0895   25.5800 C   0  0  0  0  0  0  0  0  0  0  0  0
    5.6473   -8.7216   15.3158 C   0  0  0  0  0  0  0  0  0  0  0  0
   10.7581   -3.1233   19.4720 N   0  0  0  0  0  0  0  0  0  0  0  0
    9.9571   -4.0573   16.8866 C   0  0  0  0  0  0  0  0  0  0  0  0
    7.6213   -6.5618   16.0087 C   0  0  0  0  0  0  0  0  0  0  0  0
   10.8583   -2.6527   20.7222 C   0  0  0  0  0  0  0  0  0  0  0  0
   10.6412   -3.5089   21.7936 C   0  0  0  0  0  0  0  0  0  0  0  0
   10.4972   -3.8968   24.1589 C   0  0  0  0  0  0  0  0  0  0  0  0
    5.9260   -8.2736   16.5517 C   0  0  0  0  0  0  0  0  0  0  0  0
    3.8816   -9.1166   17.2493 C   0  0  0  0  0  0  0  0  0  0  0  0
   10.1297   -1.6575   23.2324 C   0  0  0  0  0  0  0  0  0  0  0  0
    9.4684   -1.6929   26.7263 F   0  0  0  0  0  0  0  0  0  0  0  0
    7.7963   -7.7906   17.9837 C   0  0  0  0  0  0  0  0  0  0  0  0
   10.5884   -3.0725   16.7902 O   0  0  0  0  0  0  0  0  0  0  0  0
   10.4323   -5.3494   20.3516 C   0  0  0  0  0  0  0  0  0  0  0  0
    7.1156   -7.5454   16.8218 C   0  0  0  0  0  0  0  0  0  0  0  0
   10.3885   -4.4388   19.2773 C   0  0  0  0  0  0  0  0  0  0  0  0
    4.5160   -9.3822   15.0841 C   0  0  0  0  0  0  0  0  0  0  0  0
  1  3  4  0
  1 24  4  0
  2  6  4  0
  2 15  4  0
  3  5  4  0
  3  6  4  0
  4 21  4  0
  4 29  4  0
  5 15  4  0
  5 28  1  0
  6 16  4  0
  7 18  4  0
  7 26  4  0
  8 18  1  0
  8 19  4  0
  8 22  4  0
  9 12  4  0
  9 19  4  0
 10 12  4  0
 10 22  4  0
 11 20  4  0
 11 21  4  0
 12 23  1  0
 13 20  4  0
 13 29  4  0
 14 17  4  0
 14 28  4  0
 15 25  2  0
 16 27  4  0
 17 18  4  0
 20 27  1  0
 24 27  4  0
 26 28  4  0
M  END
$$$$

 Created by Python create_sdf_string function

 29 33  0  0  0  0  0  0  0  0999 V2000
    8.8270   -7.0288   18.4251 C   0  0  0  0  0  0  0  0  0  0  0  0
    9.1576   -4.6236   15.8860 O   0  0  0  0  0  0  0  0  0  0  0  0
    9.1509   -5.9108   17.7177 C   0  0  0  0  0  0  0  0  0  0  0  0
    3.6373   -9.5349   16.0582 N   0  0  0  0  0  0  0  0  0  0  0  0
    9.9275   -4.8001   18.0438 N   0  0  0  0  0  0  0  0  0  0  0  0
    8.5908   -5.7425   16.4412 C   0  0  0  0  0  0  0  0  0  0  0  0
   10.5993   -4.8981   21.6068 C   0  0  0  0  0  0  0  0  0  0  0  0
   10.4258   -3.0106   23.0998 C   0  0  0  0  0  0  0  0  0  0  0  0
   10.2148   -3.4364   25.4200 C   0  0  0  0  0  0  0  0  0  0  0  0
    9.7853   -1.1840   24.4927 C   0  0  0  0  0  0  0  0  0  0  0  0
    5.0276   -8.5227   17.5352 C   0  0  0  0  0  0  0  0  0  0  0  0
    9.8187   -2.0895   25.5800 C   0  0  0  0  0  0  0  0  0  0  0  0
    5.6473   -8.7216   15.3158 C   0  0  0  0  0  0  0  0  0  0  0  0
   10.7581   -3.1233   19.4720 N   0  0  0  0  0  0  0  0  0  0  0  0
    9.9571   -4.0573   16.8866 C   0  0  0  0  0  0  0  0  0  0  0  0
    7.6213   -6.5618   16.0087 C   0  0  0  0  0  0  0  0  0  0  0  0
   10.8583   -2.6527   20.7222 C   0  0  0  0  0  0  0  0  0  0  0  0
   10.6412   -3.5089   21.7936 C   0  0  0  0  0  0  0  0  0  0  0  0
   10.4972   -3.8968   24.1589 C   0  0  0  0  0  0  0  0  0  0  0  0
    5.9260   -8.2736   16.5517 C   0  0  0  0  0  0  0  0  0  0  0  0
    3.8816   -9.1166   17.2493 C   0  0  0  0  0  0  0  0  0  0  0  0
   10.1297   -1.6575   23.2324 C   0  0  0  0  0  0  0  0  0  0  0  0
    9.4684   -1.6929   26.7263 F   0  0  0  0  0  0  0  0  0  0  0  0
    7.7963   -7.7906   17.9837 C   0  0  0  0  0  0  0  0  0  0  0  0
   10.5884   -3.0725   16.7902 O   0  0  0  0  0  0  0  0  0  0  0  0
   10.4323   -5.3494   20.3516 C   0  0  0  0  0  0  0  0  0  0  0  0
    7.1156   -7.5454   16.8218 C   0  0  0  0  0  0  0  0  0  0  0  0
   10.3885   -4.4388   19.2773 C   0  0  0  0  0  0  0  0  0  0  0  0
    4.5160   -9.3822   15.0841 C   0  0  0  0  0  0  0  0  0  0  0  0
  1  3  4  0
  1 24  4  0
  2  6  4  0
  2 15  4  0
  3  5  4  0
  3  6  4  0
  4 21  4  0
  4 29  4  0
  5 15  4  0
  5 28  1  0
  6 16  4  0
  7 18  4  0
  7 26  4  0
  8 18  1  0
  8 19  4  0
  8 22  4  0
  9 12  4  0
  9 19  4  0
 10 12  4  0
 10 22  4  0
 11 20  4  0
 11 21  4  0
 12 23  1  0
 13 20  4  0
 13 29  4  0
 14 17  4  0
 14 28  4  0
 15 25  2  0
 16 27  4  0
 17 18  4  0
 20 27  1  0
 24 27  4  0
 26 28  4  0
M  END
$$$$

 Created by Python create_sdf_string function

 29 33  0  0  0  0  0  0  0  0999 V2000
    8.8270   -7.0288   18.4251 C   0  0  0  0  0  0  0  0  0  0  0  0
    9.1576   -4.6236   15.8860 O   0  0  0  0  0  0  0  0  0  0  0  0
    9.1509   -5.9108   17.7177 C   0  0  0  0  0  0  0  0  0  0  0  0
    3.6373   -9.5349   16.0582 N   0  0  0  0  0  0  0  0  0  0  0  0
    9.9275   -4.8001   18.0438 N   0  0  0  0  0  0  0  0  0  0  0  0
    8.5908   -5.7425   16.4412 C   0  0  0  0  0  0  0  0  0  0  0  0
   10.5993   -4.8981   21.6068 C   0  0  0  0  0  0  0  0  0  0  0  0
   10.4258   -3.0106   23.0998 C   0  0  0  0  0  0  0  0  0  0  0  0
   10.2148   -3.4364   25.4200 C   0  0  0  0  0  0  0  0  0  0  0  0
    9.7853   -1.1840   24.4927 C   0  0  0  0  0  0  0  0  0  0  0  0
    5.0276   -8.5227   17.5352 C   0  0  0  0  0  0  0  0  0  0  0  0
    9.8187   -2.0895   25.5800 C   0  0  0  0  0  0  0  0  0  0  0  0
    5.6473   -8.7216   15.3158 C   0  0  0  0  0  0  0  0  0  0  0  0
   10.7581   -3.1233   19.4720 N   0  0  0  0  0  0  0  0  0  0  0  0
    9.9571   -4.0573   16.8866 C   0  0  0  0  0  0  0  0  0  0  0  0
    7.6213   -6.5618   16.0087 C   0  0  0  0  0  0  0  0  0  0  0  0
   10.8583   -2.6527   20.7222 C   0  0  0  0  0  0  0  0  0  0  0  0
   10.6412   -3.5089   21.7936 C   0  0  0  0  0  0  0  0  0  0  0  0
   10.4972   -3.8968   24.1589 C   0  0  0  0  0  0  0  0  0  0  0  0
    5.9260   -8.2736   16.5517 C   0  0  0  0  0  0  0  0  0  0  0  0
    3.8816   -9.1166   17.2493 C   0  0  0  0  0  0  0  0  0  0  0  0
   10.1297   -1.6575   23.2324 C   0  0  0  0  0  0  0  0  0  0  0  0
    9.4684   -1.6929   26.7263 F   0  0  0  0  0  0  0  0  0  0  0  0
    7.7963   -7.7906   17.9837 C   0  0  0  0  0  0  0  0  0  0  0  0
   10.5884   -3.0725   16.7902 O   0  0  0  0  0  0  0  0  0  0  0  0
   10.4323   -5.3494   20.3516 C   0  0  0  0  0  0  0  0  0  0  0  0
    7.1156   -7.5454   16.8218 C   0  0  0  0  0  0  0  0  0  0  0  0
   10.3885   -4.4388   19.2773 C   0  0  0  0  0  0  0  0  0  0  0  0
    4.5160   -9.3822   15.0841 C   0  0  0  0  0  0  0  0  0  0  0  0
  1  3  4  0
  1 24  4  0
  2  6  4  0
  2 15  4  0
  3  5  4  0
  3  6  4  0
  4 21  4  0
  4 29  4  0
  5 15  4  0
  5 28  1  0
  6 16  4  0
  7 18  4  0
  7 26  4  0
  8 18  1  0
  8 19  4  0
  8 22  4  0
  9 12  4  0
  9 19  4  0
 10 12  4  0
 10 22  4  0
 11 20  4  0
 11 21  4  0
 12 23  1  0
 13 20  4  0
 13 29  4  0
 14 17  4  0
 14 28  4  0
 15 25  2  0
 16 27  4  0
 17 18  4  0
 20 27  1  0
 24 27  4  0
 26 28  4  0
M  END
$$$$

 Created by Python create_sdf_string function

 29 33  0  0  0  0  0  0  0  0999 V2000
    8.8270   -7.0288   18.4251 C   0  0  0  0  0  0  0  0  0  0  0  0
    9.1576   -4.6236   15.8860 O   0  0  0  0  0  0  0  0  0  0  0  0
    9.1509   -5.9108   17.7177 C   0  0  0  0  0  0  0  0  0  0  0  0
    3.6373   -9.5349   16.0582 N   0  0  0  0  0  0  0  0  0  0  0  0
    9.9275   -4.8001   18.0438 N   0  0  0  0  0  0  0  0  0  0  0  0
    8.5908   -5.7425   16.4412 C   0  0  0  0  0  0  0  0  0  0  0  0
   10.5993   -4.8981   21.6068 C   0  0  0  0  0  0  0  0  0  0  0  0
   10.4258   -3.0106   23.0998 C   0  0  0  0  0  0  0  0  0  0  0  0
   10.2148   -3.4364   25.4200 C   0  0  0  0  0  0  0  0  0  0  0  0
    9.7853   -1.1840   24.4927 C   0  0  0  0  0  0  0  0  0  0  0  0
    5.0276   -8.5227   17.5352 C   0  0  0  0  0  0  0  0  0  0  0  0
    9.8187   -2.0895   25.5800 C   0  0  0  0  0  0  0  0  0  0  0  0
    5.6473   -8.7216   15.3158 C   0  0  0  0  0  0  0  0  0  0  0  0
   10.7581   -3.1233   19.4720 N   0  0  0  0  0  0  0  0  0  0  0  0
    9.9571   -4.0573   16.8866 C   0  0  0  0  0  0  0  0  0  0  0  0
    7.6213   -6.5618   16.0087 C   0  0  0  0  0  0  0  0  0  0  0  0
   10.8583   -2.6527   20.7222 C   0  0  0  0  0  0  0  0  0  0  0  0
   10.6412   -3.5089   21.7936 C   0  0  0  0  0  0  0  0  0  0  0  0
   10.4972   -3.8968   24.1589 C   0  0  0  0  0  0  0  0  0  0  0  0
    5.9260   -8.2736   16.5517 C   0  0  0  0  0  0  0  0  0  0  0  0
    3.8816   -9.1166   17.2493 C   0  0  0  0  0  0  0  0  0  0  0  0
   10.1297   -1.6575   23.2324 C   0  0  0  0  0  0  0  0  0  0  0  0
    9.4684   -1.6929   26.7263 F   0  0  0  0  0  0  0  0  0  0  0  0
    7.7963   -7.7906   17.9837 C   0  0  0  0  0  0  0  0  0  0  0  0
   10.5884   -3.0725   16.7902 O   0  0  0  0  0  0  0  0  0  0  0  0
   10.4323   -5.3494   20.3516 C   0  0  0  0  0  0  0  0  0  0  0  0
    7.1156   -7.5454   16.8218 C   0  0  0  0  0  0  0  0  0  0  0  0
   10.3885   -4.4388   19.2773 C   0  0  0  0  0  0  0  0  0  0  0  0
    4.5160   -9.3822   15.0841 C   0  0  0  0  0  0  0  0  0  0  0  0
  1  3  4  0
  1 24  4  0
  2  6  4  0
  2 15  4  0
  3  5  4  0
  3  6  4  0
  4 21  4  0
  4 29  4  0
  5 15  4  0
  5 28  1  0
  6 16  4  0
  7 18  4  0
  7 26  4  0
  8 18  1  0
  8 19  4  0
  8 22  4  0
  9 12  4  0
  9 19  4  0
 10 12  4  0
 10 22  4  0
 11 20  4  0
 11 21  4  0
 12 23  1  0
 13 20  4  0
 13 29  4  0
 14 17  4  0
 14 28  4  0
 15 25  2  0
 16 27  4  0
 17 18  4  0
 20 27  1  0
 24 27  4  0
 26 28  4  0
M  END
$$$$

 Created by Python create_sdf_string function

 29 33  0  0  0  0  0  0  0  0999 V2000
    8.8270   -7.0288   18.4251 C   0  0  0  0  0  0  0  0  0  0  0  0
    9.1576   -4.6236   15.8860 O   0  0  0  0  0  0  0  0  0  0  0  0
    9.1509   -5.9108   17.7177 C   0  0  0  0  0  0  0  0  0  0  0  0
    3.6373   -9.5349   16.0582 N   0  0  0  0  0  0  0  0  0  0  0  0
    9.9275   -4.8001   18.0438 N   0  0  0  0  0  0  0  0  0  0  0  0
    8.5908   -5.7425   16.4412 C   0  0  0  0  0  0  0  0  0  0  0  0
   10.5993   -4.8981   21.6068 C   0  0  0  0  0  0  0  0  0  0  0  0
   10.4258   -3.0106   23.0998 C   0  0  0  0  0  0  0  0  0  0  0  0
   10.2148   -3.4364   25.4200 C   0  0  0  0  0  0  0  0  0  0  0  0
    9.7853   -1.1840   24.4927 C   0  0  0  0  0  0  0  0  0  0  0  0
    5.0276   -8.5227   17.5352 C   0  0  0  0  0  0  0  0  0  0  0  0
    9.8187   -2.0895   25.5800 C   0  0  0  0  0  0  0  0  0  0  0  0
    5.6473   -8.7216   15.3158 C   0  0  0  0  0  0  0  0  0  0  0  0
   10.7581   -3.1233   19.4720 N   0  0  0  0  0  0  0  0  0  0  0  0
    9.9571   -4.0573   16.8866 C   0  0  0  0  0  0  0  0  0  0  0  0
    7.6213   -6.5618   16.0087 C   0  0  0  0  0  0  0  0  0  0  0  0
   10.8583   -2.6527   20.7222 C   0  0  0  0  0  0  0  0  0  0  0  0
   10.6412   -3.5089   21.7936 C   0  0  0  0  0  0  0  0  0  0  0  0
   10.4972   -3.8968   24.1589 C   0  0  0  0  0  0  0  0  0  0  0  0
    5.9260   -8.2736   16.5517 C   0  0  0  0  0  0  0  0  0  0  0  0
    3.8816   -9.1166   17.2493 C   0  0  0  0  0  0  0  0  0  0  0  0
   10.1297   -1.6575   23.2324 C   0  0  0  0  0  0  0  0  0  0  0  0
    9.4684   -1.6929   26.7263 F   0  0  0  0  0  0  0  0  0  0  0  0
    7.7963   -7.7906   17.9837 C   0  0  0  0  0  0  0  0  0  0  0  0
   10.5884   -3.0725   16.7902 O   0  0  0  0  0  0  0  0  0  0  0  0
   10.4323   -5.3494   20.3516 C   0  0  0  0  0  0  0  0  0  0  0  0
    7.1156   -7.5454   16.8218 C   0  0  0  0  0  0  0  0  0  0  0  0
   10.3885   -4.4388   19.2773 C   0  0  0  0  0  0  0  0  0  0  0  0
    4.5160   -9.3822   15.0841 C   0  0  0  0  0  0  0  0  0  0  0  0
  1  3  4  0
  1 24  4  0
  2  6  4  0
  2 15  4  0
  3  5  4  0
  3  6  4  0
  4 21  4  0
  4 29  4  0
  5 15  4  0
  5 28  1  0
  6 16  4  0
  7 18  4  0
  7 26  4  0
  8 18  1  0
  8 19  4  0
  8 22  4  0
  9 12  4  0
  9 19  4  0
 10 12  4  0
 10 22  4  0
 11 20  4  0
 11 21  4  0
 12 23  1  0
 13 20  4  0
 13 29  4  0
 14 17  4  0
 14 28  4  0
 15 25  2  0
 16 27  4  0
 17 18  4  0
 20 27  1  0
 24 27  4  0
 26 28  4  0
M  END
$$$$

 Created by Python create_sdf_string function

 29 33  0  0  0  0  0  0  0  0999 V2000
    8.8270   -7.0288   18.4251 C   0  0  0  0  0  0  0  0  0  0  0  0
    9.1576   -4.6236   15.8860 O   0  0  0  0  0  0  0  0  0  0  0  0
    9.1509   -5.9108   17.7177 C   0  0  0  0  0  0  0  0  0  0  0  0
    3.6373   -9.5349   16.0582 N   0  0  0  0  0  0  0  0  0  0  0  0
    9.9275   -4.8001   18.0438 N   0  0  0  0  0  0  0  0  0  0  0  0
    8.5908   -5.7425   16.4412 C   0  0  0  0  0  0  0  0  0  0  0  0
   10.5993   -4.8981   21.6068 C   0  0  0  0  0  0  0  0  0  0  0  0
   10.4258   -3.0106   23.0998 C   0  0  0  0  0  0  0  0  0  0  0  0
   10.2148   -3.4364   25.4200 C   0  0  0  0  0  0  0  0  0  0  0  0
    9.7853   -1.1840   24.4927 C   0  0  0  0  0  0  0  0  0  0  0  0
    5.0276   -8.5227   17.5352 C   0  0  0  0  0  0  0  0  0  0  0  0
    9.8187   -2.0895   25.5800 C   0  0  0  0  0  0  0  0  0  0  0  0
    5.6473   -8.7216   15.3158 C   0  0  0  0  0  0  0  0  0  0  0  0
   10.7581   -3.1233   19.4720 N   0  0  0  0  0  0  0  0  0  0  0  0
    9.9571   -4.0573   16.8866 C   0  0  0  0  0  0  0  0  0  0  0  0
    7.6213   -6.5618   16.0087 C   0  0  0  0  0  0  0  0  0  0  0  0
   10.8583   -2.6527   20.7222 C   0  0  0  0  0  0  0  0  0  0  0  0
   10.6412   -3.5089   21.7936 C   0  0  0  0  0  0  0  0  0  0  0  0
   10.4972   -3.8968   24.1589 C   0  0  0  0  0  0  0  0  0  0  0  0
    5.9260   -8.2736   16.5517 C   0  0  0  0  0  0  0  0  0  0  0  0
    3.8816   -9.1166   17.2493 C   0  0  0  0  0  0  0  0  0  0  0  0
   10.1297   -1.6575   23.2324 C   0  0  0  0  0  0  0  0  0  0  0  0
    9.4684   -1.6929   26.7263 F   0  0  0  0  0  0  0  0  0  0  0  0
    7.7963   -7.7906   17.9837 C   0  0  0  0  0  0  0  0  0  0  0  0
   10.5884   -3.0725   16.7902 O   0  0  0  0  0  0  0  0  0  0  0  0
   10.4323   -5.3494   20.3516 C   0  0  0  0  0  0  0  0  0  0  0  0
    7.1156   -7.5454   16.8218 C   0  0  0  0  0  0  0  0  0  0  0  0
   10.3885   -4.4388   19.2773 C   0  0  0  0  0  0  0  0  0  0  0  0
    4.5160   -9.3822   15.0841 C   0  0  0  0  0  0  0  0  0  0  0  0
  1  3  4  0
  1 24  4  0
  2  6  4  0
  2 15  4  0
  3  5  4  0
  3  6  4  0
  4 21  4  0
  4 29  4  0
  5 15  4  0
  5 28  1  0
  6 16  4  0
  7 18  4  0
  7 26  4  0
  8 18  1  0
  8 19  4  0
  8 22  4  0
  9 12  4  0
  9 19  4  0
 10 12  4  0
 10 22  4  0
 11 20  4  0
 11 21  4  0
 12 23  1  0
 13 20  4  0
 13 29  4  0
 14 17  4  0
 14 28  4  0
 15 25  2  0
 16 27  4  0
 17 18  4  0
 20 27  1  0
 24 27  4  0
 26 28  4  0
M  END
$$$$

 Created by Python create_sdf_string function

 29 33  0  0  0  0  0  0  0  0999 V2000
    8.8270   -7.0288   18.4251 C   0  0  0  0  0  0  0  0  0  0  0  0
    9.1576   -4.6236   15.8860 O   0  0  0  0  0  0  0  0  0  0  0  0
    9.1509   -5.9108   17.7177 C   0  0  0  0  0  0  0  0  0  0  0  0
    3.6373   -9.5349   16.0582 N   0  0  0  0  0  0  0  0  0  0  0  0
    9.9275   -4.8001   18.0438 N   0  0  0  0  0  0  0  0  0  0  0  0
    8.5908   -5.7425   16.4412 C   0  0  0  0  0  0  0  0  0  0  0  0
   10.5993   -4.8981   21.6068 C   0  0  0  0  0  0  0  0  0  0  0  0
   10.4258   -3.0106   23.0998 C   0  0  0  0  0  0  0  0  0  0  0  0
   10.2148   -3.4364   25.4200 C   0  0  0  0  0  0  0  0  0  0  0  0
    9.7853   -1.1840   24.4927 C   0  0  0  0  0  0  0  0  0  0  0  0
    5.0276   -8.5227   17.5352 C   0  0  0  0  0  0  0  0  0  0  0  0
    9.8187   -2.0895   25.5800 C   0  0  0  0  0  0  0  0  0  0  0  0
    5.6473   -8.7216   15.3158 C   0  0  0  0  0  0  0  0  0  0  0  0
   10.7581   -3.1233   19.4720 N   0  0  0  0  0  0  0  0  0  0  0  0
    9.9571   -4.0573   16.8866 C   0  0  0  0  0  0  0  0  0  0  0  0
    7.6213   -6.5618   16.0087 C   0  0  0  0  0  0  0  0  0  0  0  0
   10.8583   -2.6527   20.7222 C   0  0  0  0  0  0  0  0  0  0  0  0
   10.6412   -3.5089   21.7936 C   0  0  0  0  0  0  0  0  0  0  0  0
   10.4972   -3.8968   24.1589 C   0  0  0  0  0  0  0  0  0  0  0  0
    5.9260   -8.2736   16.5517 C   0  0  0  0  0  0  0  0  0  0  0  0
    3.8816   -9.1166   17.2493 C   0  0  0  0  0  0  0  0  0  0  0  0
   10.1297   -1.6575   23.2324 C   0  0  0  0  0  0  0  0  0  0  0  0
    9.4684   -1.6929   26.7263 F   0  0  0  0  0  0  0  0  0  0  0  0
    7.7963   -7.7906   17.9837 C   0  0  0  0  0  0  0  0  0  0  0  0
   10.5884   -3.0725   16.7902 O   0  0  0  0  0  0  0  0  0  0  0  0
   10.4323   -5.3494   20.3516 C   0  0  0  0  0  0  0  0  0  0  0  0
    7.1156   -7.5454   16.8218 C   0  0  0  0  0  0  0  0  0  0  0  0
   10.3885   -4.4388   19.2773 C   0  0  0  0  0  0  0  0  0  0  0  0
    4.5160   -9.3822   15.0841 C   0  0  0  0  0  0  0  0  0  0  0  0
  1  3  4  0
  1 24  4  0
  2  6  4  0
  2 15  4  0
  3  5  4  0
  3  6  4  0
  4 21  4  0
  4 29  4  0
  5 15  4  0
  5 28  1  0
  6 16  4  0
  7 18  4  0
  7 26  4  0
  8 18  1  0
  8 19  4  0
  8 22  4  0
  9 12  4  0
  9 19  4  0
 10 12  4  0
 10 22  4  0
 11 20  4  0
 11 21  4  0
 12 23  1  0
 13 20  4  0
 13 29  4  0
 14 17  4  0
 14 28  4  0
 15 25  2  0
 16 27  4  0
 17 18  4  0
 20 27  1  0
 24 27  4  0
 26 28  4  0
M  END
$$$$

 Created by Python create_sdf_string function

 29 33  0  0  0  0  0  0  0  0999 V2000
    8.8270   -7.0288   18.4251 C   0  0  0  0  0  0  0  0  0  0  0  0
    9.1576   -4.6236   15.8860 O   0  0  0  0  0  0  0  0  0  0  0  0
    9.1509   -5.9108   17.7177 C   0  0  0  0  0  0  0  0  0  0  0  0
    3.6373   -9.5349   16.0582 N   0  0  0  0  0  0  0  0  0  0  0  0
    9.9275   -4.8001   18.0438 N   0  0  0  0  0  0  0  0  0  0  0  0
    8.5908   -5.7425   16.4412 C   0  0  0  0  0  0  0  0  0  0  0  0
   10.5993   -4.8981   21.6068 C   0  0  0  0  0  0  0  0  0  0  0  0
   10.4258   -3.0106   23.0998 C   0  0  0  0  0  0  0  0  0  0  0  0
   10.2148   -3.4364   25.4200 C   0  0  0  0  0  0  0  0  0  0  0  0
    9.7853   -1.1840   24.4927 C   0  0  0  0  0  0  0  0  0  0  0  0
    5.0276   -8.5227   17.5352 C   0  0  0  0  0  0  0  0  0  0  0  0
    9.8187   -2.0895   25.5800 C   0  0  0  0  0  0  0  0  0  0  0  0
    5.6473   -8.7216   15.3158 C   0  0  0  0  0  0  0  0  0  0  0  0
   10.7581   -3.1233   19.4720 N   0  0  0  0  0  0  0  0  0  0  0  0
    9.9571   -4.0573   16.8866 C   0  0  0  0  0  0  0  0  0  0  0  0
    7.6213   -6.5618   16.0087 C   0  0  0  0  0  0  0  0  0  0  0  0
   10.8583   -2.6527   20.7222 C   0  0  0  0  0  0  0  0  0  0  0  0
   10.6412   -3.5089   21.7936 C   0  0  0  0  0  0  0  0  0  0  0  0
   10.4972   -3.8968   24.1589 C   0  0  0  0  0  0  0  0  0  0  0  0
    5.9260   -8.2736   16.5517 C   0  0  0  0  0  0  0  0  0  0  0  0
    3.8816   -9.1166   17.2493 C   0  0  0  0  0  0  0  0  0  0  0  0
   10.1297   -1.6575   23.2324 C   0  0  0  0  0  0  0  0  0  0  0  0
    9.4684   -1.6929   26.7263 F   0  0  0  0  0  0  0  0  0  0  0  0
    7.7963   -7.7906   17.9837 C   0  0  0  0  0  0  0  0  0  0  0  0
   10.5884   -3.0725   16.7902 O   0  0  0  0  0  0  0  0  0  0  0  0
   10.4323   -5.3494   20.3516 C   0  0  0  0  0  0  0  0  0  0  0  0
    7.1156   -7.5454   16.8218 C   0  0  0  0  0  0  0  0  0  0  0  0
   10.3885   -4.4388   19.2773 C   0  0  0  0  0  0  0  0  0  0  0  0
    4.5160   -9.3822   15.0841 C   0  0  0  0  0  0  0  0  0  0  0  0
  1  3  4  0
  1 24  4  0
  2  6  4  0
  2 15  4  0
  3  5  4  0
  3  6  4  0
  4 21  4  0
  4 29  4  0
  5 15  4  0
  5 28  1  0
  6 16  4  0
  7 18  4  0
  7 26  4  0
  8 18  1  0
  8 19  4  0
  8 22  4  0
  9 12  4  0
  9 19  4  0
 10 12  4  0
 10 22  4  0
 11 20  4  0
 11 21  4  0
 12 23  1  0
 13 20  4  0
 13 29  4  0
 14 17  4  0
 14 28  4  0
 15 25  2  0
 16 27  4  0
 17 18  4  0
 20 27  1  0
 24 27  4  0
 26 28  4  0
M  END
$$$$

 Created by Python create_sdf_string function

 29 33  0  0  0  0  0  0  0  0999 V2000
    8.8270   -7.0288   18.4251 C   0  0  0  0  0  0  0  0  0  0  0  0
    9.1576   -4.6236   15.8860 O   0  0  0  0  0  0  0  0  0  0  0  0
    9.1509   -5.9108   17.7177 C   0  0  0  0  0  0  0  0  0  0  0  0
    3.6373   -9.5349   16.0582 N   0  0  0  0  0  0  0  0  0  0  0  0
    9.9275   -4.8001   18.0438 N   0  0  0  0  0  0  0  0  0  0  0  0
    8.5908   -5.7425   16.4412 C   0  0  0  0  0  0  0  0  0  0  0  0
   10.5993   -4.8981   21.6068 C   0  0  0  0  0  0  0  0  0  0  0  0
   10.4258   -3.0106   23.0998 C   0  0  0  0  0  0  0  0  0  0  0  0
   10.2148   -3.4364   25.4200 C   0  0  0  0  0  0  0  0  0  0  0  0
    9.7853   -1.1840   24.4927 C   0  0  0  0  0  0  0  0  0  0  0  0
    5.0276   -8.5227   17.5352 C   0  0  0  0  0  0  0  0  0  0  0  0
    9.8187   -2.0895   25.5800 C   0  0  0  0  0  0  0  0  0  0  0  0
    5.6473   -8.7216   15.3158 C   0  0  0  0  0  0  0  0  0  0  0  0
   10.7581   -3.1233   19.4720 N   0  0  0  0  0  0  0  0  0  0  0  0
    9.9571   -4.0573   16.8866 C   0  0  0  0  0  0  0  0  0  0  0  0
    7.6213   -6.5618   16.0087 C   0  0  0  0  0  0  0  0  0  0  0  0
   10.8583   -2.6527   20.7222 C   0  0  0  0  0  0  0  0  0  0  0  0
   10.6412   -3.5089   21.7936 C   0  0  0  0  0  0  0  0  0  0  0  0
   10.4972   -3.8968   24.1589 C   0  0  0  0  0  0  0  0  0  0  0  0
    5.9260   -8.2736   16.5517 C   0  0  0  0  0  0  0  0  0  0  0  0
    3.8816   -9.1166   17.2493 C   0  0  0  0  0  0  0  0  0  0  0  0
   10.1297   -1.6575   23.2324 C   0  0  0  0  0  0  0  0  0  0  0  0
    9.4684   -1.6929   26.7263 F   0  0  0  0  0  0  0  0  0  0  0  0
    7.7963   -7.7906   17.9837 C   0  0  0  0  0  0  0  0  0  0  0  0
   10.5884   -3.0725   16.7902 O   0  0  0  0  0  0  0  0  0  0  0  0
   10.4323   -5.3494   20.3516 C   0  0  0  0  0  0  0  0  0  0  0  0
    7.1156   -7.5454   16.8218 C   0  0  0  0  0  0  0  0  0  0  0  0
   10.3885   -4.4388   19.2773 C   0  0  0  0  0  0  0  0  0  0  0  0
    4.5160   -9.3822   15.0841 C   0  0  0  0  0  0  0  0  0  0  0  0
  1  3  4  0
  1 24  4  0
  2  6  4  0
  2 15  4  0
  3  5  4  0
  3  6  4  0
  4 21  4  0
  4 29  4  0
  5 15  4  0
  5 28  1  0
  6 16  4  0
  7 18  4  0
  7 26  4  0
  8 18  1  0
  8 19  4  0
  8 22  4  0
  9 12  4  0
  9 19  4  0
 10 12  4  0
 10 22  4  0
 11 20  4  0
 11 21  4  0
 12 23  1  0
 13 20  4  0
 13 29  4  0
 14 17  4  0
 14 28  4  0
 15 25  2  0
 16 27  4  0
 17 18  4  0
 20 27  1  0
 24 27  4  0
 26 28  4  0
M  END
$$$$

 Created by Python create_sdf_string function

 29 33  0  0  0  0  0  0  0  0999 V2000
    8.8270   -7.0288   18.4251 C   0  0  0  0  0  0  0  0  0  0  0  0
    9.1576   -4.6236   15.8860 O   0  0  0  0  0  0  0  0  0  0  0  0
    9.1509   -5.9108   17.7177 C   0  0  0  0  0  0  0  0  0  0  0  0
    3.6373   -9.5349   16.0582 N   0  0  0  0  0  0  0  0  0  0  0  0
    9.9275   -4.8001   18.0438 N   0  0  0  0  0  0  0  0  0  0  0  0
    8.5908   -5.7425   16.4412 C   0  0  0  0  0  0  0  0  0  0  0  0
   10.5993   -4.8981   21.6068 C   0  0  0  0  0  0  0  0  0  0  0  0
   10.4258   -3.0106   23.0998 C   0  0  0  0  0  0  0  0  0  0  0  0
   10.2148   -3.4364   25.4200 C   0  0  0  0  0  0  0  0  0  0  0  0
    9.7853   -1.1840   24.4927 C   0  0  0  0  0  0  0  0  0  0  0  0
    5.0276   -8.5227   17.5352 C   0  0  0  0  0  0  0  0  0  0  0  0
    9.8187   -2.0895   25.5800 C   0  0  0  0  0  0  0  0  0  0  0  0
    5.6473   -8.7216   15.3158 C   0  0  0  0  0  0  0  0  0  0  0  0
   10.7581   -3.1233   19.4720 N   0  0  0  0  0  0  0  0  0  0  0  0
    9.9571   -4.0573   16.8866 C   0  0  0  0  0  0  0  0  0  0  0  0
    7.6213   -6.5618   16.0087 C   0  0  0  0  0  0  0  0  0  0  0  0
   10.8583   -2.6527   20.7222 C   0  0  0  0  0  0  0  0  0  0  0  0
   10.6412   -3.5089   21.7936 C   0  0  0  0  0  0  0  0  0  0  0  0
   10.4972   -3.8968   24.1589 C   0  0  0  0  0  0  0  0  0  0  0  0
    5.9260   -8.2736   16.5517 C   0  0  0  0  0  0  0  0  0  0  0  0
    3.8816   -9.1166   17.2493 C   0  0  0  0  0  0  0  0  0  0  0  0
   10.1297   -1.6575   23.2324 C   0  0  0  0  0  0  0  0  0  0  0  0
    9.4684   -1.6929   26.7263 F   0  0  0  0  0  0  0  0  0  0  0  0
    7.7963   -7.7906   17.9837 C   0  0  0  0  0  0  0  0  0  0  0  0
   10.5884   -3.0725   16.7902 O   0  0  0  0  0  0  0  0  0  0  0  0
   10.4323   -5.3494   20.3516 C   0  0  0  0  0  0  0  0  0  0  0  0
    7.1156   -7.5454   16.8218 C   0  0  0  0  0  0  0  0  0  0  0  0
   10.3885   -4.4388   19.2773 C   0  0  0  0  0  0  0  0  0  0  0  0
    4.5160   -9.3822   15.0841 C   0  0  0  0  0  0  0  0  0  0  0  0
  1  3  4  0
  1 24  4  0
  2  6  4  0
  2 15  4  0
  3  5  4  0
  3  6  4  0
  4 21  4  0
  4 29  4  0
  5 15  4  0
  5 28  1  0
  6 16  4  0
  7 18  4  0
  7 26  4  0
  8 18  1  0
  8 19  4  0
  8 22  4  0
  9 12  4  0
  9 19  4  0
 10 12  4  0
 10 22  4  0
 11 20  4  0
 11 21  4  0
 12 23  1  0
 13 20  4  0
 13 29  4  0
 14 17  4  0
 14 28  4  0
 15 25  2  0
 16 27  4  0
 17 18  4  0
 20 27  1  0
 24 27  4  0
 26 28  4  0
M  END
$$$$

 Created by Python create_sdf_string function

 29 33  0  0  0  0  0  0  0  0999 V2000
    8.8270   -7.0288   18.4251 C   0  0  0  0  0  0  0  0  0  0  0  0
    9.1576   -4.6236   15.8860 O   0  0  0  0  0  0  0  0  0  0  0  0
    9.1509   -5.9108   17.7177 C   0  0  0  0  0  0  0  0  0  0  0  0
    3.6373   -9.5349   16.0582 N   0  0  0  0  0  0  0  0  0  0  0  0
    9.9275   -4.8001   18.0438 N   0  0  0  0  0  0  0  0  0  0  0  0
    8.5908   -5.7425   16.4412 C   0  0  0  0  0  0  0  0  0  0  0  0
   10.5993   -4.8981   21.6068 C   0  0  0  0  0  0  0  0  0  0  0  0
   10.4258   -3.0106   23.0998 C   0  0  0  0  0  0  0  0  0  0  0  0
   10.2148   -3.4364   25.4200 C   0  0  0  0  0  0  0  0  0  0  0  0
    9.7853   -1.1840   24.4927 C   0  0  0  0  0  0  0  0  0  0  0  0
    5.0276   -8.5227   17.5352 C   0  0  0  0  0  0  0  0  0  0  0  0
    9.8187   -2.0895   25.5800 C   0  0  0  0  0  0  0  0  0  0  0  0
    5.6473   -8.7216   15.3158 C   0  0  0  0  0  0  0  0  0  0  0  0
   10.7581   -3.1233   19.4720 N   0  0  0  0  0  0  0  0  0  0  0  0
    9.9571   -4.0573   16.8866 C   0  0  0  0  0  0  0  0  0  0  0  0
    7.6213   -6.5618   16.0087 C   0  0  0  0  0  0  0  0  0  0  0  0
   10.8583   -2.6527   20.7222 C   0  0  0  0  0  0  0  0  0  0  0  0
   10.6412   -3.5089   21.7936 C   0  0  0  0  0  0  0  0  0  0  0  0
   10.4972   -3.8968   24.1589 C   0  0  0  0  0  0  0  0  0  0  0  0
    5.9260   -8.2736   16.5517 C   0  0  0  0  0  0  0  0  0  0  0  0
    3.8816   -9.1166   17.2493 C   0  0  0  0  0  0  0  0  0  0  0  0
   10.1297   -1.6575   23.2324 C   0  0  0  0  0  0  0  0  0  0  0  0
    9.4684   -1.6929   26.7263 F   0  0  0  0  0  0  0  0  0  0  0  0
    7.7963   -7.7906   17.9837 C   0  0  0  0  0  0  0  0  0  0  0  0
   10.5884   -3.0725   16.7902 O   0  0  0  0  0  0  0  0  0  0  0  0
   10.4323   -5.3494   20.3516 C   0  0  0  0  0  0  0  0  0  0  0  0
    7.1156   -7.5454   16.8218 C   0  0  0  0  0  0  0  0  0  0  0  0
   10.3885   -4.4388   19.2773 C   0  0  0  0  0  0  0  0  0  0  0  0
    4.5160   -9.3822   15.0841 C   0  0  0  0  0  0  0  0  0  0  0  0
  1  3  4  0
  1 24  4  0
  2  6  4  0
  2 15  4  0
  3  5  4  0
  3  6  4  0
  4 21  4  0
  4 29  4  0
  5 15  4  0
  5 28  1  0
  6 16  4  0
  7 18  4  0
  7 26  4  0
  8 18  1  0
  8 19  4  0
  8 22  4  0
  9 12  4  0
  9 19  4  0
 10 12  4  0
 10 22  4  0
 11 20  4  0
 11 21  4  0
 12 23  1  0
 13 20  4  0
 13 29  4  0
 14 17  4  0
 14 28  4  0
 15 25  2  0
 16 27  4  0
 17 18  4  0
 20 27  1  0
 24 27  4  0
 26 28  4  0
M  END
$$$$

 Created by Python create_sdf_string function

 29 33  0  0  0  0  0  0  0  0999 V2000
    8.8270   -7.0288   18.4251 C   0  0  0  0  0  0  0  0  0  0  0  0
    9.1576   -4.6236   15.8860 O   0  0  0  0  0  0  0  0  0  0  0  0
    9.1509   -5.9108   17.7177 C   0  0  0  0  0  0  0  0  0  0  0  0
    3.6373   -9.5349   16.0582 N   0  0  0  0  0  0  0  0  0  0  0  0
    9.9275   -4.8001   18.0438 N   0  0  0  0  0  0  0  0  0  0  0  0
    8.5908   -5.7425   16.4412 C   0  0  0  0  0  0  0  0  0  0  0  0
   10.5993   -4.8981   21.6068 C   0  0  0  0  0  0  0  0  0  0  0  0
   10.4258   -3.0106   23.0998 C   0  0  0  0  0  0  0  0  0  0  0  0
   10.2148   -3.4364   25.4200 C   0  0  0  0  0  0  0  0  0  0  0  0
    9.7853   -1.1840   24.4927 C   0  0  0  0  0  0  0  0  0  0  0  0
    5.0276   -8.5227   17.5352 C   0  0  0  0  0  0  0  0  0  0  0  0
    9.8187   -2.0895   25.5800 C   0  0  0  0  0  0  0  0  0  0  0  0
    5.6473   -8.7216   15.3158 C   0  0  0  0  0  0  0  0  0  0  0  0
   10.7581   -3.1233   19.4720 N   0  0  0  0  0  0  0  0  0  0  0  0
    9.9571   -4.0573   16.8866 C   0  0  0  0  0  0  0  0  0  0  0  0
    7.6213   -6.5618   16.0087 C   0  0  0  0  0  0  0  0  0  0  0  0
   10.8583   -2.6527   20.7222 C   0  0  0  0  0  0  0  0  0  0  0  0
   10.6412   -3.5089   21.7936 C   0  0  0  0  0  0  0  0  0  0  0  0
   10.4972   -3.8968   24.1589 C   0  0  0  0  0  0  0  0  0  0  0  0
    5.9260   -8.2736   16.5517 C   0  0  0  0  0  0  0  0  0  0  0  0
    3.8816   -9.1166   17.2493 C   0  0  0  0  0  0  0  0  0  0  0  0
   10.1297   -1.6575   23.2324 C   0  0  0  0  0  0  0  0  0  0  0  0
    9.4684   -1.6929   26.7263 F   0  0  0  0  0  0  0  0  0  0  0  0
    7.7963   -7.7906   17.9837 C   0  0  0  0  0  0  0  0  0  0  0  0
   10.5884   -3.0725   16.7902 O   0  0  0  0  0  0  0  0  0  0  0  0
   10.4323   -5.3494   20.3516 C   0  0  0  0  0  0  0  0  0  0  0  0
    7.1156   -7.5454   16.8218 C   0  0  0  0  0  0  0  0  0  0  0  0
   10.3885   -4.4388   19.2773 C   0  0  0  0  0  0  0  0  0  0  0  0
    4.5160   -9.3822   15.0841 C   0  0  0  0  0  0  0  0  0  0  0  0
  1  3  4  0
  1 24  4  0
  2  6  4  0
  2 15  4  0
  3  5  4  0
  3  6  4  0
  4 21  4  0
  4 29  4  0
  5 15  4  0
  5 28  1  0
  6 16  4  0
  7 18  4  0
  7 26  4  0
  8 18  1  0
  8 19  4  0
  8 22  4  0
  9 12  4  0
  9 19  4  0
 10 12  4  0
 10 22  4  0
 11 20  4  0
 11 21  4  0
 12 23  1  0
 13 20  4  0
 13 29  4  0
 14 17  4  0
 14 28  4  0
 15 25  2  0
 16 27  4  0
 17 18  4  0
 20 27  1  0
 24 27  4  0
 26 28  4  0
M  END
$$$$

 Created by Python create_sdf_string function

 29 33  0  0  0  0  0  0  0  0999 V2000
    8.8270   -7.0288   18.4251 C   0  0  0  0  0  0  0  0  0  0  0  0
    9.1576   -4.6236   15.8860 O   0  0  0  0  0  0  0  0  0  0  0  0
    9.1509   -5.9108   17.7177 C   0  0  0  0  0  0  0  0  0  0  0  0
    3.6373   -9.5349   16.0582 N   0  0  0  0  0  0  0  0  0  0  0  0
    9.9275   -4.8001   18.0438 N   0  0  0  0  0  0  0  0  0  0  0  0
    8.5908   -5.7425   16.4412 C   0  0  0  0  0  0  0  0  0  0  0  0
   10.5993   -4.8981   21.6068 C   0  0  0  0  0  0  0  0  0  0  0  0
   10.4258   -3.0106   23.0998 C   0  0  0  0  0  0  0  0  0  0  0  0
   10.2148   -3.4364   25.4200 C   0  0  0  0  0  0  0  0  0  0  0  0
    9.7853   -1.1840   24.4927 C   0  0  0  0  0  0  0  0  0  0  0  0
    5.0276   -8.5227   17.5352 C   0  0  0  0  0  0  0  0  0  0  0  0
    9.8187   -2.0895   25.5800 C   0  0  0  0  0  0  0  0  0  0  0  0
    5.6473   -8.7216   15.3158 C   0  0  0  0  0  0  0  0  0  0  0  0
   10.7581   -3.1233   19.4720 N   0  0  0  0  0  0  0  0  0  0  0  0
    9.9571   -4.0573   16.8866 C   0  0  0  0  0  0  0  0  0  0  0  0
    7.6213   -6.5618   16.0087 C   0  0  0  0  0  0  0  0  0  0  0  0
   10.8583   -2.6527   20.7222 C   0  0  0  0  0  0  0  0  0  0  0  0
   10.6412   -3.5089   21.7936 C   0  0  0  0  0  0  0  0  0  0  0  0
   10.4972   -3.8968   24.1589 C   0  0  0  0  0  0  0  0  0  0  0  0
    5.9260   -8.2736   16.5517 C   0  0  0  0  0  0  0  0  0  0  0  0
    3.8816   -9.1166   17.2493 C   0  0  0  0  0  0  0  0  0  0  0  0
   10.1297   -1.6575   23.2324 C   0  0  0  0  0  0  0  0  0  0  0  0
    9.4684   -1.6929   26.7263 F   0  0  0  0  0  0  0  0  0  0  0  0
    7.7963   -7.7906   17.9837 C   0  0  0  0  0  0  0  0  0  0  0  0
   10.5884   -3.0725   16.7902 O   0  0  0  0  0  0  0  0  0  0  0  0
   10.4323   -5.3494   20.3516 C   0  0  0  0  0  0  0  0  0  0  0  0
    7.1156   -7.5454   16.8218 C   0  0  0  0  0  0  0  0  0  0  0  0
   10.3885   -4.4388   19.2773 C   0  0  0  0  0  0  0  0  0  0  0  0
    4.5160   -9.3822   15.0841 C   0  0  0  0  0  0  0  0  0  0  0  0
  1  3  4  0
  1 24  4  0
  2  6  4  0
  2 15  4  0
  3  5  4  0
  3  6  4  0
  4 21  4  0
  4 29  4  0
  5 15  4  0
  5 28  1  0
  6 16  4  0
  7 18  4  0
  7 26  4  0
  8 18  1  0
  8 19  4  0
  8 22  4  0
  9 12  4  0
  9 19  4  0
 10 12  4  0
 10 22  4  0
 11 20  4  0
 11 21  4  0
 12 23  1  0
 13 20  4  0
 13 29  4  0
 14 17  4  0
 14 28  4  0
 15 25  2  0
 16 27  4  0
 17 18  4  0
 20 27  1  0
 24 27  4  0
 26 28  4  0
M  END
$$$$

 Created by Python create_sdf_string function

 29 33  0  0  0  0  0  0  0  0999 V2000
    8.8270   -7.0288   18.4251 C   0  0  0  0  0  0  0  0  0  0  0  0
    9.1576   -4.6236   15.8860 O   0  0  0  0  0  0  0  0  0  0  0  0
    9.1509   -5.9108   17.7177 C   0  0  0  0  0  0  0  0  0  0  0  0
    3.6373   -9.5349   16.0582 N   0  0  0  0  0  0  0  0  0  0  0  0
    9.9275   -4.8001   18.0438 N   0  0  0  0  0  0  0  0  0  0  0  0
    8.5908   -5.7425   16.4412 C   0  0  0  0  0  0  0  0  0  0  0  0
   10.5993   -4.8981   21.6068 C   0  0  0  0  0  0  0  0  0  0  0  0
   10.4258   -3.0106   23.0998 C   0  0  0  0  0  0  0  0  0  0  0  0
   10.2148   -3.4364   25.4200 C   0  0  0  0  0  0  0  0  0  0  0  0
    9.7853   -1.1840   24.4927 C   0  0  0  0  0  0  0  0  0  0  0  0
    5.0276   -8.5227   17.5352 C   0  0  0  0  0  0  0  0  0  0  0  0
    9.8187   -2.0895   25.5800 C   0  0  0  0  0  0  0  0  0  0  0  0
    5.6473   -8.7216   15.3158 C   0  0  0  0  0  0  0  0  0  0  0  0
   10.7581   -3.1233   19.4720 N   0  0  0  0  0  0  0  0  0  0  0  0
    9.9571   -4.0573   16.8866 C   0  0  0  0  0  0  0  0  0  0  0  0
    7.6213   -6.5618   16.0087 C   0  0  0  0  0  0  0  0  0  0  0  0
   10.8583   -2.6527   20.7222 C   0  0  0  0  0  0  0  0  0  0  0  0
   10.6412   -3.5089   21.7936 C   0  0  0  0  0  0  0  0  0  0  0  0
   10.4972   -3.8968   24.1589 C   0  0  0  0  0  0  0  0  0  0  0  0
    5.9260   -8.2736   16.5517 C   0  0  0  0  0  0  0  0  0  0  0  0
    3.8816   -9.1166   17.2493 C   0  0  0  0  0  0  0  0  0  0  0  0
   10.1297   -1.6575   23.2324 C   0  0  0  0  0  0  0  0  0  0  0  0
    9.4684   -1.6929   26.7263 F   0  0  0  0  0  0  0  0  0  0  0  0
    7.7963   -7.7906   17.9837 C   0  0  0  0  0  0  0  0  0  0  0  0
   10.5884   -3.0725   16.7902 O   0  0  0  0  0  0  0  0  0  0  0  0
   10.4323   -5.3494   20.3516 C   0  0  0  0  0  0  0  0  0  0  0  0
    7.1156   -7.5454   16.8218 C   0  0  0  0  0  0  0  0  0  0  0  0
   10.3885   -4.4388   19.2773 C   0  0  0  0  0  0  0  0  0  0  0  0
    4.5160   -9.3822   15.0841 C   0  0  0  0  0  0  0  0  0  0  0  0
  1  3  4  0
  1 24  4  0
  2  6  4  0
  2 15  4  0
  3  5  4  0
  3  6  4  0
  4 21  4  0
  4 29  4  0
  5 15  4  0
  5 28  1  0
  6 16  4  0
  7 18  4  0
  7 26  4  0
  8 18  1  0
  8 19  4  0
  8 22  4  0
  9 12  4  0
  9 19  4  0
 10 12  4  0
 10 22  4  0
 11 20  4  0
 11 21  4  0
 12 23  1  0
 13 20  4  0
 13 29  4  0
 14 17  4  0
 14 28  4  0
 15 25  2  0
 16 27  4  0
 17 18  4  0
 20 27  1  0
 24 27  4  0
 26 28  4  0
M  END
$$$$

 Created by Python create_sdf_string function

 29 33  0  0  0  0  0  0  0  0999 V2000
    8.8270   -7.0288   18.4251 C   0  0  0  0  0  0  0  0  0  0  0  0
    9.1576   -4.6236   15.8860 O   0  0  0  0  0  0  0  0  0  0  0  0
    9.1509   -5.9108   17.7177 C   0  0  0  0  0  0  0  0  0  0  0  0
    3.6373   -9.5349   16.0582 N   0  0  0  0  0  0  0  0  0  0  0  0
    9.9275   -4.8001   18.0438 N   0  0  0  0  0  0  0  0  0  0  0  0
    8.5908   -5.7425   16.4412 C   0  0  0  0  0  0  0  0  0  0  0  0
   10.5993   -4.8981   21.6068 C   0  0  0  0  0  0  0  0  0  0  0  0
   10.4258   -3.0106   23.0998 C   0  0  0  0  0  0  0  0  0  0  0  0
   10.2148   -3.4364   25.4200 C   0  0  0  0  0  0  0  0  0  0  0  0
    9.7853   -1.1840   24.4927 C   0  0  0  0  0  0  0  0  0  0  0  0
    5.0276   -8.5227   17.5352 C   0  0  0  0  0  0  0  0  0  0  0  0
    9.8187   -2.0895   25.5800 C   0  0  0  0  0  0  0  0  0  0  0  0
    5.6473   -8.7216   15.3158 C   0  0  0  0  0  0  0  0  0  0  0  0
   10.7581   -3.1233   19.4720 N   0  0  0  0  0  0  0  0  0  0  0  0
    9.9571   -4.0573   16.8866 C   0  0  0  0  0  0  0  0  0  0  0  0
    7.6213   -6.5618   16.0087 C   0  0  0  0  0  0  0  0  0  0  0  0
   10.8583   -2.6527   20.7222 C   0  0  0  0  0  0  0  0  0  0  0  0
   10.6412   -3.5089   21.7936 C   0  0  0  0  0  0  0  0  0  0  0  0
   10.4972   -3.8968   24.1589 C   0  0  0  0  0  0  0  0  0  0  0  0
    5.9260   -8.2736   16.5517 C   0  0  0  0  0  0  0  0  0  0  0  0
    3.8816   -9.1166   17.2493 C   0  0  0  0  0  0  0  0  0  0  0  0
   10.1297   -1.6575   23.2324 C   0  0  0  0  0  0  0  0  0  0  0  0
    9.4684   -1.6929   26.7263 F   0  0  0  0  0  0  0  0  0  0  0  0
    7.7963   -7.7906   17.9837 C   0  0  0  0  0  0  0  0  0  0  0  0
   10.5884   -3.0725   16.7902 O   0  0  0  0  0  0  0  0  0  0  0  0
   10.4323   -5.3494   20.3516 C   0  0  0  0  0  0  0  0  0  0  0  0
    7.1156   -7.5454   16.8218 C   0  0  0  0  0  0  0  0  0  0  0  0
   10.3885   -4.4388   19.2773 C   0  0  0  0  0  0  0  0  0  0  0  0
    4.5160   -9.3822   15.0841 C   0  0  0  0  0  0  0  0  0  0  0  0
  1  3  4  0
  1 24  4  0
  2  6  4  0
  2 15  4  0
  3  5  4  0
  3  6  4  0
  4 21  4  0
  4 29  4  0
  5 15  4  0
  5 28  1  0
  6 16  4  0
  7 18  4  0
  7 26  4  0
  8 18  1  0
  8 19  4  0
  8 22  4  0
  9 12  4  0
  9 19  4  0
 10 12  4  0
 10 22  4  0
 11 20  4  0
 11 21  4  0
 12 23  1  0
 13 20  4  0
 13 29  4  0
 14 17  4  0
 14 28  4  0
 15 25  2  0
 16 27  4  0
 17 18  4  0
 20 27  1  0
 24 27  4  0
 26 28  4  0
M  END
$$$$

 Created by Python create_sdf_string function

 29 33  0  0  0  0  0  0  0  0999 V2000
    8.8270   -7.0288   18.4251 C   0  0  0  0  0  0  0  0  0  0  0  0
    9.1576   -4.6236   15.8860 O   0  0  0  0  0  0  0  0  0  0  0  0
    9.1509   -5.9108   17.7177 C   0  0  0  0  0  0  0  0  0  0  0  0
    3.6373   -9.5349   16.0582 N   0  0  0  0  0  0  0  0  0  0  0  0
    9.9275   -4.8001   18.0438 N   0  0  0  0  0  0  0  0  0  0  0  0
    8.5908   -5.7425   16.4412 C   0  0  0  0  0  0  0  0  0  0  0  0
   10.5993   -4.8981   21.6068 C   0  0  0  0  0  0  0  0  0  0  0  0
   10.4258   -3.0106   23.0998 C   0  0  0  0  0  0  0  0  0  0  0  0
   10.2148   -3.4364   25.4200 C   0  0  0  0  0  0  0  0  0  0  0  0
    9.7853   -1.1840   24.4927 C   0  0  0  0  0  0  0  0  0  0  0  0
    5.0276   -8.5227   17.5352 C   0  0  0  0  0  0  0  0  0  0  0  0
    9.8187   -2.0895   25.5800 C   0  0  0  0  0  0  0  0  0  0  0  0
    5.6473   -8.7216   15.3158 C   0  0  0  0  0  0  0  0  0  0  0  0
   10.7581   -3.1233   19.4720 N   0  0  0  0  0  0  0  0  0  0  0  0
    9.9571   -4.0573   16.8866 C   0  0  0  0  0  0  0  0  0  0  0  0
    7.6213   -6.5618   16.0087 C   0  0  0  0  0  0  0  0  0  0  0  0
   10.8583   -2.6527   20.7222 C   0  0  0  0  0  0  0  0  0  0  0  0
   10.6412   -3.5089   21.7936 C   0  0  0  0  0  0  0  0  0  0  0  0
   10.4972   -3.8968   24.1589 C   0  0  0  0  0  0  0  0  0  0  0  0
    5.9260   -8.2736   16.5517 C   0  0  0  0  0  0  0  0  0  0  0  0
    3.8816   -9.1166   17.2493 C   0  0  0  0  0  0  0  0  0  0  0  0
   10.1297   -1.6575   23.2324 C   0  0  0  0  0  0  0  0  0  0  0  0
    9.4684   -1.6929   26.7263 F   0  0  0  0  0  0  0  0  0  0  0  0
    7.7963   -7.7906   17.9837 C   0  0  0  0  0  0  0  0  0  0  0  0
   10.5884   -3.0725   16.7902 O   0  0  0  0  0  0  0  0  0  0  0  0
   10.4323   -5.3494   20.3516 C   0  0  0  0  0  0  0  0  0  0  0  0
    7.1156   -7.5454   16.8218 C   0  0  0  0  0  0  0  0  0  0  0  0
   10.3885   -4.4388   19.2773 C   0  0  0  0  0  0  0  0  0  0  0  0
    4.5160   -9.3822   15.0841 C   0  0  0  0  0  0  0  0  0  0  0  0
  1  3  4  0
  1 24  4  0
  2  6  4  0
  2 15  4  0
  3  5  4  0
  3  6  4  0
  4 21  4  0
  4 29  4  0
  5 15  4  0
  5 28  1  0
  6 16  4  0
  7 18  4  0
  7 26  4  0
  8 18  1  0
  8 19  4  0
  8 22  4  0
  9 12  4  0
  9 19  4  0
 10 12  4  0
 10 22  4  0
 11 20  4  0
 11 21  4  0
 12 23  1  0
 13 20  4  0
 13 29  4  0
 14 17  4  0
 14 28  4  0
 15 25  2  0
 16 27  4  0
 17 18  4  0
 20 27  1  0
 24 27  4  0
 26 28  4  0
M  END
$$$$

 Created by Python create_sdf_string function

 29 33  0  0  0  0  0  0  0  0999 V2000
    8.8270   -7.0288   18.4251 C   0  0  0  0  0  0  0  0  0  0  0  0
    9.1576   -4.6236   15.8860 O   0  0  0  0  0  0  0  0  0  0  0  0
    9.1509   -5.9108   17.7177 C   0  0  0  0  0  0  0  0  0  0  0  0
    3.6373   -9.5349   16.0582 N   0  0  0  0  0  0  0  0  0  0  0  0
    9.9275   -4.8001   18.0438 N   0  0  0  0  0  0  0  0  0  0  0  0
    8.5908   -5.7425   16.4412 C   0  0  0  0  0  0  0  0  0  0  0  0
   10.5993   -4.8981   21.6068 C   0  0  0  0  0  0  0  0  0  0  0  0
   10.4258   -3.0106   23.0998 C   0  0  0  0  0  0  0  0  0  0  0  0
   10.2148   -3.4364   25.4200 C   0  0  0  0  0  0  0  0  0  0  0  0
    9.7853   -1.1840   24.4927 C   0  0  0  0  0  0  0  0  0  0  0  0
    5.0276   -8.5227   17.5352 C   0  0  0  0  0  0  0  0  0  0  0  0
    9.8187   -2.0895   25.5800 C   0  0  0  0  0  0  0  0  0  0  0  0
    5.6473   -8.7216   15.3158 C   0  0  0  0  0  0  0  0  0  0  0  0
   10.7581   -3.1233   19.4720 N   0  0  0  0  0  0  0  0  0  0  0  0
    9.9571   -4.0573   16.8866 C   0  0  0  0  0  0  0  0  0  0  0  0
    7.6213   -6.5618   16.0087 C   0  0  0  0  0  0  0  0  0  0  0  0
   10.8583   -2.6527   20.7222 C   0  0  0  0  0  0  0  0  0  0  0  0
   10.6412   -3.5089   21.7936 C   0  0  0  0  0  0  0  0  0  0  0  0
   10.4972   -3.8968   24.1589 C   0  0  0  0  0  0  0  0  0  0  0  0
    5.9260   -8.2736   16.5517 C   0  0  0  0  0  0  0  0  0  0  0  0
    3.8816   -9.1166   17.2493 C   0  0  0  0  0  0  0  0  0  0  0  0
   10.1297   -1.6575   23.2324 C   0  0  0  0  0  0  0  0  0  0  0  0
    9.4684   -1.6929   26.7263 F   0  0  0  0  0  0  0  0  0  0  0  0
    7.7963   -7.7906   17.9837 C   0  0  0  0  0  0  0  0  0  0  0  0
   10.5884   -3.0725   16.7902 O   0  0  0  0  0  0  0  0  0  0  0  0
   10.4323   -5.3494   20.3516 C   0  0  0  0  0  0  0  0  0  0  0  0
    7.1156   -7.5454   16.8218 C   0  0  0  0  0  0  0  0  0  0  0  0
   10.3885   -4.4388   19.2773 C   0  0  0  0  0  0  0  0  0  0  0  0
    4.5160   -9.3822   15.0841 C   0  0  0  0  0  0  0  0  0  0  0  0
  1  3  4  0
  1 24  4  0
  2  6  4  0
  2 15  4  0
  3  5  4  0
  3  6  4  0
  4 21  4  0
  4 29  4  0
  5 15  4  0
  5 28  1  0
  6 16  4  0
  7 18  4  0
  7 26  4  0
  8 18  1  0
  8 19  4  0
  8 22  4  0
  9 12  4  0
  9 19  4  0
 10 12  4  0
 10 22  4  0
 11 20  4  0
 11 21  4  0
 12 23  1  0
 13 20  4  0
 13 29  4  0
 14 17  4  0
 14 28  4  0
 15 25  2  0
 16 27  4  0
 17 18  4  0
 20 27  1  0
 24 27  4  0
 26 28  4  0
M  END
$$$$

 Created by Python create_sdf_string function

 29 33  0  0  0  0  0  0  0  0999 V2000
    8.8270   -7.0288   18.4251 C   0  0  0  0  0  0  0  0  0  0  0  0
    9.1576   -4.6236   15.8860 O   0  0  0  0  0  0  0  0  0  0  0  0
    9.1509   -5.9108   17.7177 C   0  0  0  0  0  0  0  0  0  0  0  0
    3.6373   -9.5349   16.0582 N   0  0  0  0  0  0  0  0  0  0  0  0
    9.9275   -4.8001   18.0438 N   0  0  0  0  0  0  0  0  0  0  0  0
    8.5908   -5.7425   16.4412 C   0  0  0  0  0  0  0  0  0  0  0  0
   10.5993   -4.8981   21.6068 C   0  0  0  0  0  0  0  0  0  0  0  0
   10.4258   -3.0106   23.0998 C   0  0  0  0  0  0  0  0  0  0  0  0
   10.2148   -3.4364   25.4200 C   0  0  0  0  0  0  0  0  0  0  0  0
    9.7853   -1.1840   24.4927 C   0  0  0  0  0  0  0  0  0  0  0  0
    5.0276   -8.5227   17.5352 C   0  0  0  0  0  0  0  0  0  0  0  0
    9.8187   -2.0895   25.5800 C   0  0  0  0  0  0  0  0  0  0  0  0
    5.6473   -8.7216   15.3158 C   0  0  0  0  0  0  0  0  0  0  0  0
   10.7581   -3.1233   19.4720 N   0  0  0  0  0  0  0  0  0  0  0  0
    9.9571   -4.0573   16.8866 C   0  0  0  0  0  0  0  0  0  0  0  0
    7.6213   -6.5618   16.0087 C   0  0  0  0  0  0  0  0  0  0  0  0
   10.8583   -2.6527   20.7222 C   0  0  0  0  0  0  0  0  0  0  0  0
   10.6412   -3.5089   21.7936 C   0  0  0  0  0  0  0  0  0  0  0  0
   10.4972   -3.8968   24.1589 C   0  0  0  0  0  0  0  0  0  0  0  0
    5.9260   -8.2736   16.5517 C   0  0  0  0  0  0  0  0  0  0  0  0
    3.8816   -9.1166   17.2493 C   0  0  0  0  0  0  0  0  0  0  0  0
   10.1297   -1.6575   23.2324 C   0  0  0  0  0  0  0  0  0  0  0  0
    9.4684   -1.6929   26.7263 F   0  0  0  0  0  0  0  0  0  0  0  0
    7.7963   -7.7906   17.9837 C   0  0  0  0  0  0  0  0  0  0  0  0
   10.5884   -3.0725   16.7902 O   0  0  0  0  0  0  0  0  0  0  0  0
   10.4323   -5.3494   20.3516 C   0  0  0  0  0  0  0  0  0  0  0  0
    7.1156   -7.5454   16.8218 C   0  0  0  0  0  0  0  0  0  0  0  0
   10.3885   -4.4388   19.2773 C   0  0  0  0  0  0  0  0  0  0  0  0
    4.5160   -9.3822   15.0841 C   0  0  0  0  0  0  0  0  0  0  0  0
  1  3  4  0
  1 24  4  0
  2  6  4  0
  2 15  4  0
  3  5  4  0
  3  6  4  0
  4 21  4  0
  4 29  4  0
  5 15  4  0
  5 28  1  0
  6 16  4  0
  7 18  4  0
  7 26  4  0
  8 18  1  0
  8 19  4  0
  8 22  4  0
  9 12  4  0
  9 19  4  0
 10 12  4  0
 10 22  4  0
 11 20  4  0
 11 21  4  0
 12 23  1  0
 13 20  4  0
 13 29  4  0
 14 17  4  0
 14 28  4  0
 15 25  2  0
 16 27  4  0
 17 18  4  0
 20 27  1  0
 24 27  4  0
 26 28  4  0
M  END
$$$$

 Created by Python create_sdf_string function

 29 33  0  0  0  0  0  0  0  0999 V2000
    8.8270   -7.0288   18.4251 C   0  0  0  0  0  0  0  0  0  0  0  0
    9.1576   -4.6236   15.8860 O   0  0  0  0  0  0  0  0  0  0  0  0
    9.1509   -5.9108   17.7177 C   0  0  0  0  0  0  0  0  0  0  0  0
    3.6373   -9.5349   16.0582 N   0  0  0  0  0  0  0  0  0  0  0  0
    9.9275   -4.8001   18.0438 N   0  0  0  0  0  0  0  0  0  0  0  0
    8.5908   -5.7425   16.4412 C   0  0  0  0  0  0  0  0  0  0  0  0
   10.5993   -4.8981   21.6068 C   0  0  0  0  0  0  0  0  0  0  0  0
   10.4258   -3.0106   23.0998 C   0  0  0  0  0  0  0  0  0  0  0  0
   10.2148   -3.4364   25.4200 C   0  0  0  0  0  0  0  0  0  0  0  0
    9.7853   -1.1840   24.4927 C   0  0  0  0  0  0  0  0  0  0  0  0
    5.0276   -8.5227   17.5352 C   0  0  0  0  0  0  0  0  0  0  0  0
    9.8187   -2.0895   25.5800 C   0  0  0  0  0  0  0  0  0  0  0  0
    5.6473   -8.7216   15.3158 C   0  0  0  0  0  0  0  0  0  0  0  0
   10.7581   -3.1233   19.4720 N   0  0  0  0  0  0  0  0  0  0  0  0
    9.9571   -4.0573   16.8866 C   0  0  0  0  0  0  0  0  0  0  0  0
    7.6213   -6.5618   16.0087 C   0  0  0  0  0  0  0  0  0  0  0  0
   10.8583   -2.6527   20.7222 C   0  0  0  0  0  0  0  0  0  0  0  0
   10.6412   -3.5089   21.7936 C   0  0  0  0  0  0  0  0  0  0  0  0
   10.4972   -3.8968   24.1589 C   0  0  0  0  0  0  0  0  0  0  0  0
    5.9260   -8.2736   16.5517 C   0  0  0  0  0  0  0  0  0  0  0  0
    3.8816   -9.1166   17.2493 C   0  0  0  0  0  0  0  0  0  0  0  0
   10.1297   -1.6575   23.2324 C   0  0  0  0  0  0  0  0  0  0  0  0
    9.4684   -1.6929   26.7263 F   0  0  0  0  0  0  0  0  0  0  0  0
    7.7963   -7.7906   17.9837 C   0  0  0  0  0  0  0  0  0  0  0  0
   10.5884   -3.0725   16.7902 O   0  0  0  0  0  0  0  0  0  0  0  0
   10.4323   -5.3494   20.3516 C   0  0  0  0  0  0  0  0  0  0  0  0
    7.1156   -7.5454   16.8218 C   0  0  0  0  0  0  0  0  0  0  0  0
   10.3885   -4.4388   19.2773 C   0  0  0  0  0  0  0  0  0  0  0  0
    4.5160   -9.3822   15.0841 C   0  0  0  0  0  0  0  0  0  0  0  0
  1  3  4  0
  1 24  4  0
  2  6  4  0
  2 15  4  0
  3  5  4  0
  3  6  4  0
  4 21  4  0
  4 29  4  0
  5 15  4  0
  5 28  1  0
  6 16  4  0
  7 18  4  0
  7 26  4  0
  8 18  1  0
  8 19  4  0
  8 22  4  0
  9 12  4  0
  9 19  4  0
 10 12  4  0
 10 22  4  0
 11 20  4  0
 11 21  4  0
 12 23  1  0
 13 20  4  0
 13 29  4  0
 14 17  4  0
 14 28  4  0
 15 25  2  0
 16 27  4  0
 17 18  4  0
 20 27  1  0
 24 27  4  0
 26 28  4  0
M  END
$$$$

 Created by Python create_sdf_string function

 29 33  0  0  0  0  0  0  0  0999 V2000
    8.8270   -7.0288   18.4251 C   0  0  0  0  0  0  0  0  0  0  0  0
    9.1576   -4.6236   15.8860 O   0  0  0  0  0  0  0  0  0  0  0  0
    9.1509   -5.9108   17.7177 C   0  0  0  0  0  0  0  0  0  0  0  0
    3.6373   -9.5349   16.0582 N   0  0  0  0  0  0  0  0  0  0  0  0
    9.9275   -4.8001   18.0438 N   0  0  0  0  0  0  0  0  0  0  0  0
    8.5908   -5.7425   16.4412 C   0  0  0  0  0  0  0  0  0  0  0  0
   10.5993   -4.8981   21.6068 C   0  0  0  0  0  0  0  0  0  0  0  0
   10.4258   -3.0106   23.0998 C   0  0  0  0  0  0  0  0  0  0  0  0
   10.2148   -3.4364   25.4200 C   0  0  0  0  0  0  0  0  0  0  0  0
    9.7853   -1.1840   24.4927 C   0  0  0  0  0  0  0  0  0  0  0  0
    5.0276   -8.5227   17.5352 C   0  0  0  0  0  0  0  0  0  0  0  0
    9.8187   -2.0895   25.5800 C   0  0  0  0  0  0  0  0  0  0  0  0
    5.6473   -8.7216   15.3158 C   0  0  0  0  0  0  0  0  0  0  0  0
   10.7581   -3.1233   19.4720 N   0  0  0  0  0  0  0  0  0  0  0  0
    9.9571   -4.0573   16.8866 C   0  0  0  0  0  0  0  0  0  0  0  0
    7.6213   -6.5618   16.0087 C   0  0  0  0  0  0  0  0  0  0  0  0
   10.8583   -2.6527   20.7222 C   0  0  0  0  0  0  0  0  0  0  0  0
   10.6412   -3.5089   21.7936 C   0  0  0  0  0  0  0  0  0  0  0  0
   10.4972   -3.8968   24.1589 C   0  0  0  0  0  0  0  0  0  0  0  0
    5.9260   -8.2736   16.5517 C   0  0  0  0  0  0  0  0  0  0  0  0
    3.8816   -9.1166   17.2493 C   0  0  0  0  0  0  0  0  0  0  0  0
   10.1297   -1.6575   23.2324 C   0  0  0  0  0  0  0  0  0  0  0  0
    9.4684   -1.6929   26.7263 F   0  0  0  0  0  0  0  0  0  0  0  0
    7.7963   -7.7906   17.9837 C   0  0  0  0  0  0  0  0  0  0  0  0
   10.5884   -3.0725   16.7902 O   0  0  0  0  0  0  0  0  0  0  0  0
   10.4323   -5.3494   20.3516 C   0  0  0  0  0  0  0  0  0  0  0  0
    7.1156   -7.5454   16.8218 C   0  0  0  0  0  0  0  0  0  0  0  0
   10.3885   -4.4388   19.2773 C   0  0  0  0  0  0  0  0  0  0  0  0
    4.5160   -9.3822   15.0841 C   0  0  0  0  0  0  0  0  0  0  0  0
  1  3  4  0
  1 24  4  0
  2  6  4  0
  2 15  4  0
  3  5  4  0
  3  6  4  0
  4 21  4  0
  4 29  4  0
  5 15  4  0
  5 28  1  0
  6 16  4  0
  7 18  4  0
  7 26  4  0
  8 18  1  0
  8 19  4  0
  8 22  4  0
  9 12  4  0
  9 19  4  0
 10 12  4  0
 10 22  4  0
 11 20  4  0
 11 21  4  0
 12 23  1  0
 13 20  4  0
 13 29  4  0
 14 17  4  0
 14 28  4  0
 15 25  2  0
 16 27  4  0
 17 18  4  0
 20 27  1  0
 24 27  4  0
 26 28  4  0
M  END
$$$$

 Created by Python create_sdf_string function

 29 33  0  0  0  0  0  0  0  0999 V2000
    8.8270   -7.0288   18.4251 C   0  0  0  0  0  0  0  0  0  0  0  0
    9.1576   -4.6236   15.8860 O   0  0  0  0  0  0  0  0  0  0  0  0
    9.1509   -5.9108   17.7177 C   0  0  0  0  0  0  0  0  0  0  0  0
    3.6373   -9.5349   16.0582 N   0  0  0  0  0  0  0  0  0  0  0  0
    9.9275   -4.8001   18.0438 N   0  0  0  0  0  0  0  0  0  0  0  0
    8.5908   -5.7425   16.4412 C   0  0  0  0  0  0  0  0  0  0  0  0
   10.5993   -4.8981   21.6068 C   0  0  0  0  0  0  0  0  0  0  0  0
   10.4258   -3.0106   23.0998 C   0  0  0  0  0  0  0  0  0  0  0  0
   10.2148   -3.4364   25.4200 C   0  0  0  0  0  0  0  0  0  0  0  0
    9.7853   -1.1840   24.4927 C   0  0  0  0  0  0  0  0  0  0  0  0
    5.0276   -8.5227   17.5352 C   0  0  0  0  0  0  0  0  0  0  0  0
    9.8187   -2.0895   25.5800 C   0  0  0  0  0  0  0  0  0  0  0  0
    5.6473   -8.7216   15.3158 C   0  0  0  0  0  0  0  0  0  0  0  0
   10.7581   -3.1233   19.4720 N   0  0  0  0  0  0  0  0  0  0  0  0
    9.9571   -4.0573   16.8866 C   0  0  0  0  0  0  0  0  0  0  0  0
    7.6213   -6.5618   16.0087 C   0  0  0  0  0  0  0  0  0  0  0  0
   10.8583   -2.6527   20.7222 C   0  0  0  0  0  0  0  0  0  0  0  0
   10.6412   -3.5089   21.7936 C   0  0  0  0  0  0  0  0  0  0  0  0
   10.4972   -3.8968   24.1589 C   0  0  0  0  0  0  0  0  0  0  0  0
    5.9260   -8.2736   16.5517 C   0  0  0  0  0  0  0  0  0  0  0  0
    3.8816   -9.1166   17.2493 C   0  0  0  0  0  0  0  0  0  0  0  0
   10.1297   -1.6575   23.2324 C   0  0  0  0  0  0  0  0  0  0  0  0
    9.4684   -1.6929   26.7263 F   0  0  0  0  0  0  0  0  0  0  0  0
    7.7963   -7.7906   17.9837 C   0  0  0  0  0  0  0  0  0  0  0  0
   10.5884   -3.0725   16.7902 O   0  0  0  0  0  0  0  0  0  0  0  0
   10.4323   -5.3494   20.3516 C   0  0  0  0  0  0  0  0  0  0  0  0
    7.1156   -7.5454   16.8218 C   0  0  0  0  0  0  0  0  0  0  0  0
   10.3885   -4.4388   19.2773 C   0  0  0  0  0  0  0  0  0  0  0  0
    4.5160   -9.3822   15.0841 C   0  0  0  0  0  0  0  0  0  0  0  0
  1  3  4  0
  1 24  4  0
  2  6  4  0
  2 15  4  0
  3  5  4  0
  3  6  4  0
  4 21  4  0
  4 29  4  0
  5 15  4  0
  5 28  1  0
  6 16  4  0
  7 18  4  0
  7 26  4  0
  8 18  1  0
  8 19  4  0
  8 22  4  0
  9 12  4  0
  9 19  4  0
 10 12  4  0
 10 22  4  0
 11 20  4  0
 11 21  4  0
 12 23  1  0
 13 20  4  0
 13 29  4  0
 14 17  4  0
 14 28  4  0
 15 25  2  0
 16 27  4  0
 17 18  4  0
 20 27  1  0
 24 27  4  0
 26 28  4  0
M  END
$$$$

 Created by Python create_sdf_string function

 29 33  0  0  0  0  0  0  0  0999 V2000
    8.8270   -7.0288   18.4251 C   0  0  0  0  0  0  0  0  0  0  0  0
    9.1576   -4.6236   15.8860 O   0  0  0  0  0  0  0  0  0  0  0  0
    9.1509   -5.9108   17.7177 C   0  0  0  0  0  0  0  0  0  0  0  0
    3.6373   -9.5349   16.0582 N   0  0  0  0  0  0  0  0  0  0  0  0
    9.9275   -4.8001   18.0438 N   0  0  0  0  0  0  0  0  0  0  0  0
    8.5908   -5.7425   16.4412 C   0  0  0  0  0  0  0  0  0  0  0  0
   10.5993   -4.8981   21.6068 C   0  0  0  0  0  0  0  0  0  0  0  0
   10.4258   -3.0106   23.0998 C   0  0  0  0  0  0  0  0  0  0  0  0
   10.2148   -3.4364   25.4200 C   0  0  0  0  0  0  0  0  0  0  0  0
    9.7853   -1.1840   24.4927 C   0  0  0  0  0  0  0  0  0  0  0  0
    5.0276   -8.5227   17.5352 C   0  0  0  0  0  0  0  0  0  0  0  0
    9.8187   -2.0895   25.5800 C   0  0  0  0  0  0  0  0  0  0  0  0
    5.6473   -8.7216   15.3158 C   0  0  0  0  0  0  0  0  0  0  0  0
   10.7581   -3.1233   19.4720 N   0  0  0  0  0  0  0  0  0  0  0  0
    9.9571   -4.0573   16.8866 C   0  0  0  0  0  0  0  0  0  0  0  0
    7.6213   -6.5618   16.0087 C   0  0  0  0  0  0  0  0  0  0  0  0
   10.8583   -2.6527   20.7222 C   0  0  0  0  0  0  0  0  0  0  0  0
   10.6412   -3.5089   21.7936 C   0  0  0  0  0  0  0  0  0  0  0  0
   10.4972   -3.8968   24.1589 C   0  0  0  0  0  0  0  0  0  0  0  0
    5.9260   -8.2736   16.5517 C   0  0  0  0  0  0  0  0  0  0  0  0
    3.8816   -9.1166   17.2493 C   0  0  0  0  0  0  0  0  0  0  0  0
   10.1297   -1.6575   23.2324 C   0  0  0  0  0  0  0  0  0  0  0  0
    9.4684   -1.6929   26.7263 F   0  0  0  0  0  0  0  0  0  0  0  0
    7.7963   -7.7906   17.9837 C   0  0  0  0  0  0  0  0  0  0  0  0
   10.5884   -3.0725   16.7902 O   0  0  0  0  0  0  0  0  0  0  0  0
   10.4323   -5.3494   20.3516 C   0  0  0  0  0  0  0  0  0  0  0  0
    7.1156   -7.5454   16.8218 C   0  0  0  0  0  0  0  0  0  0  0  0
   10.3885   -4.4388   19.2773 C   0  0  0  0  0  0  0  0  0  0  0  0
    4.5160   -9.3822   15.0841 C   0  0  0  0  0  0  0  0  0  0  0  0
  1  3  4  0
  1 24  4  0
  2  6  4  0
  2 15  4  0
  3  5  4  0
  3  6  4  0
  4 21  4  0
  4 29  4  0
  5 15  4  0
  5 28  1  0
  6 16  4  0
  7 18  4  0
  7 26  4  0
  8 18  1  0
  8 19  4  0
  8 22  4  0
  9 12  4  0
  9 19  4  0
 10 12  4  0
 10 22  4  0
 11 20  4  0
 11 21  4  0
 12 23  1  0
 13 20  4  0
 13 29  4  0
 14 17  4  0
 14 28  4  0
 15 25  2  0
 16 27  4  0
 17 18  4  0
 20 27  1  0
 24 27  4  0
 26 28  4  0
M  END
$$$$

 Created by Python create_sdf_string function

 29 33  0  0  0  0  0  0  0  0999 V2000
    8.8270   -7.0288   18.4251 C   0  0  0  0  0  0  0  0  0  0  0  0
    9.1576   -4.6236   15.8860 O   0  0  0  0  0  0  0  0  0  0  0  0
    9.1509   -5.9108   17.7177 C   0  0  0  0  0  0  0  0  0  0  0  0
    3.6373   -9.5349   16.0582 N   0  0  0  0  0  0  0  0  0  0  0  0
    9.9275   -4.8001   18.0438 N   0  0  0  0  0  0  0  0  0  0  0  0
    8.5908   -5.7425   16.4412 C   0  0  0  0  0  0  0  0  0  0  0  0
   10.5993   -4.8981   21.6068 C   0  0  0  0  0  0  0  0  0  0  0  0
   10.4258   -3.0106   23.0998 C   0  0  0  0  0  0  0  0  0  0  0  0
   10.2148   -3.4364   25.4200 C   0  0  0  0  0  0  0  0  0  0  0  0
    9.7853   -1.1840   24.4927 C   0  0  0  0  0  0  0  0  0  0  0  0
    5.0276   -8.5227   17.5352 C   0  0  0  0  0  0  0  0  0  0  0  0
    9.8187   -2.0895   25.5800 C   0  0  0  0  0  0  0  0  0  0  0  0
    5.6473   -8.7216   15.3158 C   0  0  0  0  0  0  0  0  0  0  0  0
   10.7581   -3.1233   19.4720 N   0  0  0  0  0  0  0  0  0  0  0  0
    9.9571   -4.0573   16.8866 C   0  0  0  0  0  0  0  0  0  0  0  0
    7.6213   -6.5618   16.0087 C   0  0  0  0  0  0  0  0  0  0  0  0
   10.8583   -2.6527   20.7222 C   0  0  0  0  0  0  0  0  0  0  0  0
   10.6412   -3.5089   21.7936 C   0  0  0  0  0  0  0  0  0  0  0  0
   10.4972   -3.8968   24.1589 C   0  0  0  0  0  0  0  0  0  0  0  0
    5.9260   -8.2736   16.5517 C   0  0  0  0  0  0  0  0  0  0  0  0
    3.8816   -9.1166   17.2493 C   0  0  0  0  0  0  0  0  0  0  0  0
   10.1297   -1.6575   23.2324 C   0  0  0  0  0  0  0  0  0  0  0  0
    9.4684   -1.6929   26.7263 F   0  0  0  0  0  0  0  0  0  0  0  0
    7.7963   -7.7906   17.9837 C   0  0  0  0  0  0  0  0  0  0  0  0
   10.5884   -3.0725   16.7902 O   0  0  0  0  0  0  0  0  0  0  0  0
   10.4323   -5.3494   20.3516 C   0  0  0  0  0  0  0  0  0  0  0  0
    7.1156   -7.5454   16.8218 C   0  0  0  0  0  0  0  0  0  0  0  0
   10.3885   -4.4388   19.2773 C   0  0  0  0  0  0  0  0  0  0  0  0
    4.5160   -9.3822   15.0841 C   0  0  0  0  0  0  0  0  0  0  0  0
  1  3  4  0
  1 24  4  0
  2  6  4  0
  2 15  4  0
  3  5  4  0
  3  6  4  0
  4 21  4  0
  4 29  4  0
  5 15  4  0
  5 28  1  0
  6 16  4  0
  7 18  4  0
  7 26  4  0
  8 18  1  0
  8 19  4  0
  8 22  4  0
  9 12  4  0
  9 19  4  0
 10 12  4  0
 10 22  4  0
 11 20  4  0
 11 21  4  0
 12 23  1  0
 13 20  4  0
 13 29  4  0
 14 17  4  0
 14 28  4  0
 15 25  2  0
 16 27  4  0
 17 18  4  0
 20 27  1  0
 24 27  4  0
 26 28  4  0
M  END
$$$$

 Created by Python create_sdf_string function

 29 33  0  0  0  0  0  0  0  0999 V2000
    8.8270   -7.0288   18.4251 C   0  0  0  0  0  0  0  0  0  0  0  0
    9.1576   -4.6236   15.8860 O   0  0  0  0  0  0  0  0  0  0  0  0
    9.1509   -5.9108   17.7177 C   0  0  0  0  0  0  0  0  0  0  0  0
    3.6373   -9.5349   16.0582 N   0  0  0  0  0  0  0  0  0  0  0  0
    9.9275   -4.8001   18.0438 N   0  0  0  0  0  0  0  0  0  0  0  0
    8.5908   -5.7425   16.4412 C   0  0  0  0  0  0  0  0  0  0  0  0
   10.5993   -4.8981   21.6068 C   0  0  0  0  0  0  0  0  0  0  0  0
   10.4258   -3.0106   23.0998 C   0  0  0  0  0  0  0  0  0  0  0  0
   10.2148   -3.4364   25.4200 C   0  0  0  0  0  0  0  0  0  0  0  0
    9.7853   -1.1840   24.4927 C   0  0  0  0  0  0  0  0  0  0  0  0
    5.0276   -8.5227   17.5352 C   0  0  0  0  0  0  0  0  0  0  0  0
    9.8187   -2.0895   25.5800 C   0  0  0  0  0  0  0  0  0  0  0  0
    5.6473   -8.7216   15.3158 C   0  0  0  0  0  0  0  0  0  0  0  0
   10.7581   -3.1233   19.4720 N   0  0  0  0  0  0  0  0  0  0  0  0
    9.9571   -4.0573   16.8866 C   0  0  0  0  0  0  0  0  0  0  0  0
    7.6213   -6.5618   16.0087 C   0  0  0  0  0  0  0  0  0  0  0  0
   10.8583   -2.6527   20.7222 C   0  0  0  0  0  0  0  0  0  0  0  0
   10.6412   -3.5089   21.7936 C   0  0  0  0  0  0  0  0  0  0  0  0
   10.4972   -3.8968   24.1589 C   0  0  0  0  0  0  0  0  0  0  0  0
    5.9260   -8.2736   16.5517 C   0  0  0  0  0  0  0  0  0  0  0  0
    3.8816   -9.1166   17.2493 C   0  0  0  0  0  0  0  0  0  0  0  0
   10.1297   -1.6575   23.2324 C   0  0  0  0  0  0  0  0  0  0  0  0
    9.4684   -1.6929   26.7263 F   0  0  0  0  0  0  0  0  0  0  0  0
    7.7963   -7.7906   17.9837 C   0  0  0  0  0  0  0  0  0  0  0  0
   10.5884   -3.0725   16.7902 O   0  0  0  0  0  0  0  0  0  0  0  0
   10.4323   -5.3494   20.3516 C   0  0  0  0  0  0  0  0  0  0  0  0
    7.1156   -7.5454   16.8218 C   0  0  0  0  0  0  0  0  0  0  0  0
   10.3885   -4.4388   19.2773 C   0  0  0  0  0  0  0  0  0  0  0  0
    4.5160   -9.3822   15.0841 C   0  0  0  0  0  0  0  0  0  0  0  0
  1  3  4  0
  1 24  4  0
  2  6  4  0
  2 15  4  0
  3  5  4  0
  3  6  4  0
  4 21  4  0
  4 29  4  0
  5 15  4  0
  5 28  1  0
  6 16  4  0
  7 18  4  0
  7 26  4  0
  8 18  1  0
  8 19  4  0
  8 22  4  0
  9 12  4  0
  9 19  4  0
 10 12  4  0
 10 22  4  0
 11 20  4  0
 11 21  4  0
 12 23  1  0
 13 20  4  0
 13 29  4  0
 14 17  4  0
 14 28  4  0
 15 25  2  0
 16 27  4  0
 17 18  4  0
 20 27  1  0
 24 27  4  0
 26 28  4  0
M  END
$$$$

 Created by Python create_sdf_string function

 29 33  0  0  0  0  0  0  0  0999 V2000
    8.8270   -7.0288   18.4251 C   0  0  0  0  0  0  0  0  0  0  0  0
    9.1576   -4.6236   15.8860 O   0  0  0  0  0  0  0  0  0  0  0  0
    9.1509   -5.9108   17.7177 C   0  0  0  0  0  0  0  0  0  0  0  0
    3.6373   -9.5349   16.0582 N   0  0  0  0  0  0  0  0  0  0  0  0
    9.9275   -4.8001   18.0438 N   0  0  0  0  0  0  0  0  0  0  0  0
    8.5908   -5.7425   16.4412 C   0  0  0  0  0  0  0  0  0  0  0  0
   10.5993   -4.8981   21.6068 C   0  0  0  0  0  0  0  0  0  0  0  0
   10.4258   -3.0106   23.0998 C   0  0  0  0  0  0  0  0  0  0  0  0
   10.2148   -3.4364   25.4200 C   0  0  0  0  0  0  0  0  0  0  0  0
    9.7853   -1.1840   24.4927 C   0  0  0  0  0  0  0  0  0  0  0  0
    5.0276   -8.5227   17.5352 C   0  0  0  0  0  0  0  0  0  0  0  0
    9.8187   -2.0895   25.5800 C   0  0  0  0  0  0  0  0  0  0  0  0
    5.6473   -8.7216   15.3158 C   0  0  0  0  0  0  0  0  0  0  0  0
   10.7581   -3.1233   19.4720 N   0  0  0  0  0  0  0  0  0  0  0  0
    9.9571   -4.0573   16.8866 C   0  0  0  0  0  0  0  0  0  0  0  0
    7.6213   -6.5618   16.0087 C   0  0  0  0  0  0  0  0  0  0  0  0
   10.8583   -2.6527   20.7222 C   0  0  0  0  0  0  0  0  0  0  0  0
   10.6412   -3.5089   21.7936 C   0  0  0  0  0  0  0  0  0  0  0  0
   10.4972   -3.8968   24.1589 C   0  0  0  0  0  0  0  0  0  0  0  0
    5.9260   -8.2736   16.5517 C   0  0  0  0  0  0  0  0  0  0  0  0
    3.8816   -9.1166   17.2493 C   0  0  0  0  0  0  0  0  0  0  0  0
   10.1297   -1.6575   23.2324 C   0  0  0  0  0  0  0  0  0  0  0  0
    9.4684   -1.6929   26.7263 F   0  0  0  0  0  0  0  0  0  0  0  0
    7.7963   -7.7906   17.9837 C   0  0  0  0  0  0  0  0  0  0  0  0
   10.5884   -3.0725   16.7902 O   0  0  0  0  0  0  0  0  0  0  0  0
   10.4323   -5.3494   20.3516 C   0  0  0  0  0  0  0  0  0  0  0  0
    7.1156   -7.5454   16.8218 C   0  0  0  0  0  0  0  0  0  0  0  0
   10.3885   -4.4388   19.2773 C   0  0  0  0  0  0  0  0  0  0  0  0
    4.5160   -9.3822   15.0841 C   0  0  0  0  0  0  0  0  0  0  0  0
  1  3  4  0
  1 24  4  0
  2  6  4  0
  2 15  4  0
  3  5  4  0
  3  6  4  0
  4 21  4  0
  4 29  4  0
  5 15  4  0
  5 28  1  0
  6 16  4  0
  7 18  4  0
  7 26  4  0
  8 18  1  0
  8 19  4  0
  8 22  4  0
  9 12  4  0
  9 19  4  0
 10 12  4  0
 10 22  4  0
 11 20  4  0
 11 21  4  0
 12 23  1  0
 13 20  4  0
 13 29  4  0
 14 17  4  0
 14 28  4  0
 15 25  2  0
 16 27  4  0
 17 18  4  0
 20 27  1  0
 24 27  4  0
 26 28  4  0
M  END
$$$$

 Created by Python create_sdf_string function

 29 33  0  0  0  0  0  0  0  0999 V2000
    8.8270   -7.0288   18.4251 C   0  0  0  0  0  0  0  0  0  0  0  0
    9.1576   -4.6236   15.8860 O   0  0  0  0  0  0  0  0  0  0  0  0
    9.1509   -5.9108   17.7177 C   0  0  0  0  0  0  0  0  0  0  0  0
    3.6373   -9.5349   16.0582 N   0  0  0  0  0  0  0  0  0  0  0  0
    9.9275   -4.8001   18.0438 N   0  0  0  0  0  0  0  0  0  0  0  0
    8.5908   -5.7425   16.4412 C   0  0  0  0  0  0  0  0  0  0  0  0
   10.5993   -4.8981   21.6068 C   0  0  0  0  0  0  0  0  0  0  0  0
   10.4258   -3.0106   23.0998 C   0  0  0  0  0  0  0  0  0  0  0  0
   10.2148   -3.4364   25.4200 C   0  0  0  0  0  0  0  0  0  0  0  0
    9.7853   -1.1840   24.4927 C   0  0  0  0  0  0  0  0  0  0  0  0
    5.0276   -8.5227   17.5352 C   0  0  0  0  0  0  0  0  0  0  0  0
    9.8187   -2.0895   25.5800 C   0  0  0  0  0  0  0  0  0  0  0  0
    5.6473   -8.7216   15.3158 C   0  0  0  0  0  0  0  0  0  0  0  0
   10.7581   -3.1233   19.4720 N   0  0  0  0  0  0  0  0  0  0  0  0
    9.9571   -4.0573   16.8866 C   0  0  0  0  0  0  0  0  0  0  0  0
    7.6213   -6.5618   16.0087 C   0  0  0  0  0  0  0  0  0  0  0  0
   10.8583   -2.6527   20.7222 C   0  0  0  0  0  0  0  0  0  0  0  0
   10.6412   -3.5089   21.7936 C   0  0  0  0  0  0  0  0  0  0  0  0
   10.4972   -3.8968   24.1589 C   0  0  0  0  0  0  0  0  0  0  0  0
    5.9260   -8.2736   16.5517 C   0  0  0  0  0  0  0  0  0  0  0  0
    3.8816   -9.1166   17.2493 C   0  0  0  0  0  0  0  0  0  0  0  0
   10.1297   -1.6575   23.2324 C   0  0  0  0  0  0  0  0  0  0  0  0
    9.4684   -1.6929   26.7263 F   0  0  0  0  0  0  0  0  0  0  0  0
    7.7963   -7.7906   17.9837 C   0  0  0  0  0  0  0  0  0  0  0  0
   10.5884   -3.0725   16.7902 O   0  0  0  0  0  0  0  0  0  0  0  0
   10.4323   -5.3494   20.3516 C   0  0  0  0  0  0  0  0  0  0  0  0
    7.1156   -7.5454   16.8218 C   0  0  0  0  0  0  0  0  0  0  0  0
   10.3885   -4.4388   19.2773 C   0  0  0  0  0  0  0  0  0  0  0  0
    4.5160   -9.3822   15.0841 C   0  0  0  0  0  0  0  0  0  0  0  0
  1  3  4  0
  1 24  4  0
  2  6  4  0
  2 15  4  0
  3  5  4  0
  3  6  4  0
  4 21  4  0
  4 29  4  0
  5 15  4  0
  5 28  1  0
  6 16  4  0
  7 18  4  0
  7 26  4  0
  8 18  1  0
  8 19  4  0
  8 22  4  0
  9 12  4  0
  9 19  4  0
 10 12  4  0
 10 22  4  0
 11 20  4  0
 11 21  4  0
 12 23  1  0
 13 20  4  0
 13 29  4  0
 14 17  4  0
 14 28  4  0
 15 25  2  0
 16 27  4  0
 17 18  4  0
 20 27  1  0
 24 27  4  0
 26 28  4  0
M  END
$$$$

 Created by Python create_sdf_string function

 29 33  0  0  0  0  0  0  0  0999 V2000
    8.8270   -7.0288   18.4251 C   0  0  0  0  0  0  0  0  0  0  0  0
    9.1576   -4.6236   15.8860 O   0  0  0  0  0  0  0  0  0  0  0  0
    9.1509   -5.9108   17.7177 C   0  0  0  0  0  0  0  0  0  0  0  0
    3.6373   -9.5349   16.0582 N   0  0  0  0  0  0  0  0  0  0  0  0
    9.9275   -4.8001   18.0438 N   0  0  0  0  0  0  0  0  0  0  0  0
    8.5908   -5.7425   16.4412 C   0  0  0  0  0  0  0  0  0  0  0  0
   10.5993   -4.8981   21.6068 C   0  0  0  0  0  0  0  0  0  0  0  0
   10.4258   -3.0106   23.0998 C   0  0  0  0  0  0  0  0  0  0  0  0
   10.2148   -3.4364   25.4200 C   0  0  0  0  0  0  0  0  0  0  0  0
    9.7853   -1.1840   24.4927 C   0  0  0  0  0  0  0  0  0  0  0  0
    5.0276   -8.5227   17.5352 C   0  0  0  0  0  0  0  0  0  0  0  0
    9.8187   -2.0895   25.5800 C   0  0  0  0  0  0  0  0  0  0  0  0
    5.6473   -8.7216   15.3158 C   0  0  0  0  0  0  0  0  0  0  0  0
   10.7581   -3.1233   19.4720 N   0  0  0  0  0  0  0  0  0  0  0  0
    9.9571   -4.0573   16.8866 C   0  0  0  0  0  0  0  0  0  0  0  0
    7.6213   -6.5618   16.0087 C   0  0  0  0  0  0  0  0  0  0  0  0
   10.8583   -2.6527   20.7222 C   0  0  0  0  0  0  0  0  0  0  0  0
   10.6412   -3.5089   21.7936 C   0  0  0  0  0  0  0  0  0  0  0  0
   10.4972   -3.8968   24.1589 C   0  0  0  0  0  0  0  0  0  0  0  0
    5.9260   -8.2736   16.5517 C   0  0  0  0  0  0  0  0  0  0  0  0
    3.8816   -9.1166   17.2493 C   0  0  0  0  0  0  0  0  0  0  0  0
   10.1297   -1.6575   23.2324 C   0  0  0  0  0  0  0  0  0  0  0  0
    9.4684   -1.6929   26.7263 F   0  0  0  0  0  0  0  0  0  0  0  0
    7.7963   -7.7906   17.9837 C   0  0  0  0  0  0  0  0  0  0  0  0
   10.5884   -3.0725   16.7902 O   0  0  0  0  0  0  0  0  0  0  0  0
   10.4323   -5.3494   20.3516 C   0  0  0  0  0  0  0  0  0  0  0  0
    7.1156   -7.5454   16.8218 C   0  0  0  0  0  0  0  0  0  0  0  0
   10.3885   -4.4388   19.2773 C   0  0  0  0  0  0  0  0  0  0  0  0
    4.5160   -9.3822   15.0841 C   0  0  0  0  0  0  0  0  0  0  0  0
  1  3  4  0
  1 24  4  0
  2  6  4  0
  2 15  4  0
  3  5  4  0
  3  6  4  0
  4 21  4  0
  4 29  4  0
  5 15  4  0
  5 28  1  0
  6 16  4  0
  7 18  4  0
  7 26  4  0
  8 18  1  0
  8 19  4  0
  8 22  4  0
  9 12  4  0
  9 19  4  0
 10 12  4  0
 10 22  4  0
 11 20  4  0
 11 21  4  0
 12 23  1  0
 13 20  4  0
 13 29  4  0
 14 17  4  0
 14 28  4  0
 15 25  2  0
 16 27  4  0
 17 18  4  0
 20 27  1  0
 24 27  4  0
 26 28  4  0
M  END
$$$$

 Created by Python create_sdf_string function

 29 33  0  0  0  0  0  0  0  0999 V2000
    8.8270   -7.0288   18.4251 C   0  0  0  0  0  0  0  0  0  0  0  0
    9.1576   -4.6236   15.8860 O   0  0  0  0  0  0  0  0  0  0  0  0
    9.1509   -5.9108   17.7177 C   0  0  0  0  0  0  0  0  0  0  0  0
    3.6373   -9.5349   16.0582 N   0  0  0  0  0  0  0  0  0  0  0  0
    9.9275   -4.8001   18.0438 N   0  0  0  0  0  0  0  0  0  0  0  0
    8.5908   -5.7425   16.4412 C   0  0  0  0  0  0  0  0  0  0  0  0
   10.5993   -4.8981   21.6068 C   0  0  0  0  0  0  0  0  0  0  0  0
   10.4258   -3.0106   23.0998 C   0  0  0  0  0  0  0  0  0  0  0  0
   10.2148   -3.4364   25.4200 C   0  0  0  0  0  0  0  0  0  0  0  0
    9.7853   -1.1840   24.4927 C   0  0  0  0  0  0  0  0  0  0  0  0
    5.0276   -8.5227   17.5352 C   0  0  0  0  0  0  0  0  0  0  0  0
    9.8187   -2.0895   25.5800 C   0  0  0  0  0  0  0  0  0  0  0  0
    5.6473   -8.7216   15.3158 C   0  0  0  0  0  0  0  0  0  0  0  0
   10.7581   -3.1233   19.4720 N   0  0  0  0  0  0  0  0  0  0  0  0
    9.9571   -4.0573   16.8866 C   0  0  0  0  0  0  0  0  0  0  0  0
    7.6213   -6.5618   16.0087 C   0  0  0  0  0  0  0  0  0  0  0  0
   10.8583   -2.6527   20.7222 C   0  0  0  0  0  0  0  0  0  0  0  0
   10.6412   -3.5089   21.7936 C   0  0  0  0  0  0  0  0  0  0  0  0
   10.4972   -3.8968   24.1589 C   0  0  0  0  0  0  0  0  0  0  0  0
    5.9260   -8.2736   16.5517 C   0  0  0  0  0  0  0  0  0  0  0  0
    3.8816   -9.1166   17.2493 C   0  0  0  0  0  0  0  0  0  0  0  0
   10.1297   -1.6575   23.2324 C   0  0  0  0  0  0  0  0  0  0  0  0
    9.4684   -1.6929   26.7263 F   0  0  0  0  0  0  0  0  0  0  0  0
    7.7963   -7.7906   17.9837 C   0  0  0  0  0  0  0  0  0  0  0  0
   10.5884   -3.0725   16.7902 O   0  0  0  0  0  0  0  0  0  0  0  0
   10.4323   -5.3494   20.3516 C   0  0  0  0  0  0  0  0  0  0  0  0
    7.1156   -7.5454   16.8218 C   0  0  0  0  0  0  0  0  0  0  0  0
   10.3885   -4.4388   19.2773 C   0  0  0  0  0  0  0  0  0  0  0  0
    4.5160   -9.3822   15.0841 C   0  0  0  0  0  0  0  0  0  0  0  0
  1  3  4  0
  1 24  4  0
  2  6  4  0
  2 15  4  0
  3  5  4  0
  3  6  4  0
  4 21  4  0
  4 29  4  0
  5 15  4  0
  5 28  1  0
  6 16  4  0
  7 18  4  0
  7 26  4  0
  8 18  1  0
  8 19  4  0
  8 22  4  0
  9 12  4  0
  9 19  4  0
 10 12  4  0
 10 22  4  0
 11 20  4  0
 11 21  4  0
 12 23  1  0
 13 20  4  0
 13 29  4  0
 14 17  4  0
 14 28  4  0
 15 25  2  0
 16 27  4  0
 17 18  4  0
 20 27  1  0
 24 27  4  0
 26 28  4  0
M  END
$$$$

 Created by Python create_sdf_string function

 29 33  0  0  0  0  0  0  0  0999 V2000
    8.8270   -7.0288   18.4251 C   0  0  0  0  0  0  0  0  0  0  0  0
    9.1576   -4.6236   15.8860 O   0  0  0  0  0  0  0  0  0  0  0  0
    9.1509   -5.9108   17.7177 C   0  0  0  0  0  0  0  0  0  0  0  0
    3.6373   -9.5349   16.0582 N   0  0  0  0  0  0  0  0  0  0  0  0
    9.9275   -4.8001   18.0438 N   0  0  0  0  0  0  0  0  0  0  0  0
    8.5908   -5.7425   16.4412 C   0  0  0  0  0  0  0  0  0  0  0  0
   10.5993   -4.8981   21.6068 C   0  0  0  0  0  0  0  0  0  0  0  0
   10.4258   -3.0106   23.0998 C   0  0  0  0  0  0  0  0  0  0  0  0
   10.2148   -3.4364   25.4200 C   0  0  0  0  0  0  0  0  0  0  0  0
    9.7853   -1.1840   24.4927 C   0  0  0  0  0  0  0  0  0  0  0  0
    5.0276   -8.5227   17.5352 C   0  0  0  0  0  0  0  0  0  0  0  0
    9.8187   -2.0895   25.5800 C   0  0  0  0  0  0  0  0  0  0  0  0
    5.6473   -8.7216   15.3158 C   0  0  0  0  0  0  0  0  0  0  0  0
   10.7581   -3.1233   19.4720 N   0  0  0  0  0  0  0  0  0  0  0  0
    9.9571   -4.0573   16.8866 C   0  0  0  0  0  0  0  0  0  0  0  0
    7.6213   -6.5618   16.0087 C   0  0  0  0  0  0  0  0  0  0  0  0
   10.8583   -2.6527   20.7222 C   0  0  0  0  0  0  0  0  0  0  0  0
   10.6412   -3.5089   21.7936 C   0  0  0  0  0  0  0  0  0  0  0  0
   10.4972   -3.8968   24.1589 C   0  0  0  0  0  0  0  0  0  0  0  0
    5.9260   -8.2736   16.5517 C   0  0  0  0  0  0  0  0  0  0  0  0
    3.8816   -9.1166   17.2493 C   0  0  0  0  0  0  0  0  0  0  0  0
   10.1297   -1.6575   23.2324 C   0  0  0  0  0  0  0  0  0  0  0  0
    9.4684   -1.6929   26.7263 F   0  0  0  0  0  0  0  0  0  0  0  0
    7.7963   -7.7906   17.9837 C   0  0  0  0  0  0  0  0  0  0  0  0
   10.5884   -3.0725   16.7902 O   0  0  0  0  0  0  0  0  0  0  0  0
   10.4323   -5.3494   20.3516 C   0  0  0  0  0  0  0  0  0  0  0  0
    7.1156   -7.5454   16.8218 C   0  0  0  0  0  0  0  0  0  0  0  0
   10.3885   -4.4388   19.2773 C   0  0  0  0  0  0  0  0  0  0  0  0
    4.5160   -9.3822   15.0841 C   0  0  0  0  0  0  0  0  0  0  0  0
  1  3  4  0
  1 24  4  0
  2  6  4  0
  2 15  4  0
  3  5  4  0
  3  6  4  0
  4 21  4  0
  4 29  4  0
  5 15  4  0
  5 28  1  0
  6 16  4  0
  7 18  4  0
  7 26  4  0
  8 18  1  0
  8 19  4  0
  8 22  4  0
  9 12  4  0
  9 19  4  0
 10 12  4  0
 10 22  4  0
 11 20  4  0
 11 21  4  0
 12 23  1  0
 13 20  4  0
 13 29  4  0
 14 17  4  0
 14 28  4  0
 15 25  2  0
 16 27  4  0
 17 18  4  0
 20 27  1  0
 24 27  4  0
 26 28  4  0
M  END
$$$$

 Created by Python create_sdf_string function

 29 33  0  0  0  0  0  0  0  0999 V2000
    8.8270   -7.0288   18.4251 C   0  0  0  0  0  0  0  0  0  0  0  0
    9.1576   -4.6236   15.8860 O   0  0  0  0  0  0  0  0  0  0  0  0
    9.1509   -5.9108   17.7177 C   0  0  0  0  0  0  0  0  0  0  0  0
    3.6373   -9.5349   16.0582 N   0  0  0  0  0  0  0  0  0  0  0  0
    9.9275   -4.8001   18.0438 N   0  0  0  0  0  0  0  0  0  0  0  0
    8.5908   -5.7425   16.4412 C   0  0  0  0  0  0  0  0  0  0  0  0
   10.5993   -4.8981   21.6068 C   0  0  0  0  0  0  0  0  0  0  0  0
   10.4258   -3.0106   23.0998 C   0  0  0  0  0  0  0  0  0  0  0  0
   10.2148   -3.4364   25.4200 C   0  0  0  0  0  0  0  0  0  0  0  0
    9.7853   -1.1840   24.4927 C   0  0  0  0  0  0  0  0  0  0  0  0
    5.0276   -8.5227   17.5352 C   0  0  0  0  0  0  0  0  0  0  0  0
    9.8187   -2.0895   25.5800 C   0  0  0  0  0  0  0  0  0  0  0  0
    5.6473   -8.7216   15.3158 C   0  0  0  0  0  0  0  0  0  0  0  0
   10.7581   -3.1233   19.4720 N   0  0  0  0  0  0  0  0  0  0  0  0
    9.9571   -4.0573   16.8866 C   0  0  0  0  0  0  0  0  0  0  0  0
    7.6213   -6.5618   16.0087 C   0  0  0  0  0  0  0  0  0  0  0  0
   10.8583   -2.6527   20.7222 C   0  0  0  0  0  0  0  0  0  0  0  0
   10.6412   -3.5089   21.7936 C   0  0  0  0  0  0  0  0  0  0  0  0
   10.4972   -3.8968   24.1589 C   0  0  0  0  0  0  0  0  0  0  0  0
    5.9260   -8.2736   16.5517 C   0  0  0  0  0  0  0  0  0  0  0  0
    3.8816   -9.1166   17.2493 C   0  0  0  0  0  0  0  0  0  0  0  0
   10.1297   -1.6575   23.2324 C   0  0  0  0  0  0  0  0  0  0  0  0
    9.4684   -1.6929   26.7263 F   0  0  0  0  0  0  0  0  0  0  0  0
    7.7963   -7.7906   17.9837 C   0  0  0  0  0  0  0  0  0  0  0  0
   10.5884   -3.0725   16.7902 O   0  0  0  0  0  0  0  0  0  0  0  0
   10.4323   -5.3494   20.3516 C   0  0  0  0  0  0  0  0  0  0  0  0
    7.1156   -7.5454   16.8218 C   0  0  0  0  0  0  0  0  0  0  0  0
   10.3885   -4.4388   19.2773 C   0  0  0  0  0  0  0  0  0  0  0  0
    4.5160   -9.3822   15.0841 C   0  0  0  0  0  0  0  0  0  0  0  0
  1  3  4  0
  1 24  4  0
  2  6  4  0
  2 15  4  0
  3  5  4  0
  3  6  4  0
  4 21  4  0
  4 29  4  0
  5 15  4  0
  5 28  1  0
  6 16  4  0
  7 18  4  0
  7 26  4  0
  8 18  1  0
  8 19  4  0
  8 22  4  0
  9 12  4  0
  9 19  4  0
 10 12  4  0
 10 22  4  0
 11 20  4  0
 11 21  4  0
 12 23  1  0
 13 20  4  0
 13 29  4  0
 14 17  4  0
 14 28  4  0
 15 25  2  0
 16 27  4  0
 17 18  4  0
 20 27  1  0
 24 27  4  0
 26 28  4  0
M  END
$$$$

 Created by Python create_sdf_string function

 29 33  0  0  0  0  0  0  0  0999 V2000
    8.8270   -7.0288   18.4251 C   0  0  0  0  0  0  0  0  0  0  0  0
    9.1576   -4.6236   15.8860 O   0  0  0  0  0  0  0  0  0  0  0  0
    9.1509   -5.9108   17.7177 C   0  0  0  0  0  0  0  0  0  0  0  0
    3.6373   -9.5349   16.0582 N   0  0  0  0  0  0  0  0  0  0  0  0
    9.9275   -4.8001   18.0438 N   0  0  0  0  0  0  0  0  0  0  0  0
    8.5908   -5.7425   16.4412 C   0  0  0  0  0  0  0  0  0  0  0  0
   10.5993   -4.8981   21.6068 C   0  0  0  0  0  0  0  0  0  0  0  0
   10.4258   -3.0106   23.0998 C   0  0  0  0  0  0  0  0  0  0  0  0
   10.2148   -3.4364   25.4200 C   0  0  0  0  0  0  0  0  0  0  0  0
    9.7853   -1.1840   24.4927 C   0  0  0  0  0  0  0  0  0  0  0  0
    5.0276   -8.5227   17.5352 C   0  0  0  0  0  0  0  0  0  0  0  0
    9.8187   -2.0895   25.5800 C   0  0  0  0  0  0  0  0  0  0  0  0
    5.6473   -8.7216   15.3158 C   0  0  0  0  0  0  0  0  0  0  0  0
   10.7581   -3.1233   19.4720 N   0  0  0  0  0  0  0  0  0  0  0  0
    9.9571   -4.0573   16.8866 C   0  0  0  0  0  0  0  0  0  0  0  0
    7.6213   -6.5618   16.0087 C   0  0  0  0  0  0  0  0  0  0  0  0
   10.8583   -2.6527   20.7222 C   0  0  0  0  0  0  0  0  0  0  0  0
   10.6412   -3.5089   21.7936 C   0  0  0  0  0  0  0  0  0  0  0  0
   10.4972   -3.8968   24.1589 C   0  0  0  0  0  0  0  0  0  0  0  0
    5.9260   -8.2736   16.5517 C   0  0  0  0  0  0  0  0  0  0  0  0
    3.8816   -9.1166   17.2493 C   0  0  0  0  0  0  0  0  0  0  0  0
   10.1297   -1.6575   23.2324 C   0  0  0  0  0  0  0  0  0  0  0  0
    9.4684   -1.6929   26.7263 F   0  0  0  0  0  0  0  0  0  0  0  0
    7.7963   -7.7906   17.9837 C   0  0  0  0  0  0  0  0  0  0  0  0
   10.5884   -3.0725   16.7902 O   0  0  0  0  0  0  0  0  0  0  0  0
   10.4323   -5.3494   20.3516 C   0  0  0  0  0  0  0  0  0  0  0  0
    7.1156   -7.5454   16.8218 C   0  0  0  0  0  0  0  0  0  0  0  0
   10.3885   -4.4388   19.2773 C   0  0  0  0  0  0  0  0  0  0  0  0
    4.5160   -9.3822   15.0841 C   0  0  0  0  0  0  0  0  0  0  0  0
  1  3  4  0
  1 24  4  0
  2  6  4  0
  2 15  4  0
  3  5  4  0
  3  6  4  0
  4 21  4  0
  4 29  4  0
  5 15  4  0
  5 28  1  0
  6 16  4  0
  7 18  4  0
  7 26  4  0
  8 18  1  0
  8 19  4  0
  8 22  4  0
  9 12  4  0
  9 19  4  0
 10 12  4  0
 10 22  4  0
 11 20  4  0
 11 21  4  0
 12 23  1  0
 13 20  4  0
 13 29  4  0
 14 17  4  0
 14 28  4  0
 15 25  2  0
 16 27  4  0
 17 18  4  0
 20 27  1  0
 24 27  4  0
 26 28  4  0
M  END
$$$$

 Created by Python create_sdf_string function

 29 33  0  0  0  0  0  0  0  0999 V2000
    8.8270   -7.0288   18.4251 C   0  0  0  0  0  0  0  0  0  0  0  0
    9.1576   -4.6236   15.8860 O   0  0  0  0  0  0  0  0  0  0  0  0
    9.1509   -5.9108   17.7177 C   0  0  0  0  0  0  0  0  0  0  0  0
    3.6373   -9.5349   16.0582 N   0  0  0  0  0  0  0  0  0  0  0  0
    9.9275   -4.8001   18.0438 N   0  0  0  0  0  0  0  0  0  0  0  0
    8.5908   -5.7425   16.4412 C   0  0  0  0  0  0  0  0  0  0  0  0
   10.5993   -4.8981   21.6068 C   0  0  0  0  0  0  0  0  0  0  0  0
   10.4258   -3.0106   23.0998 C   0  0  0  0  0  0  0  0  0  0  0  0
   10.2148   -3.4364   25.4200 C   0  0  0  0  0  0  0  0  0  0  0  0
    9.7853   -1.1840   24.4927 C   0  0  0  0  0  0  0  0  0  0  0  0
    5.0276   -8.5227   17.5352 C   0  0  0  0  0  0  0  0  0  0  0  0
    9.8187   -2.0895   25.5800 C   0  0  0  0  0  0  0  0  0  0  0  0
    5.6473   -8.7216   15.3158 C   0  0  0  0  0  0  0  0  0  0  0  0
   10.7581   -3.1233   19.4720 N   0  0  0  0  0  0  0  0  0  0  0  0
    9.9571   -4.0573   16.8866 C   0  0  0  0  0  0  0  0  0  0  0  0
    7.6213   -6.5618   16.0087 C   0  0  0  0  0  0  0  0  0  0  0  0
   10.8583   -2.6527   20.7222 C   0  0  0  0  0  0  0  0  0  0  0  0
   10.6412   -3.5089   21.7936 C   0  0  0  0  0  0  0  0  0  0  0  0
   10.4972   -3.8968   24.1589 C   0  0  0  0  0  0  0  0  0  0  0  0
    5.9260   -8.2736   16.5517 C   0  0  0  0  0  0  0  0  0  0  0  0
    3.8816   -9.1166   17.2493 C   0  0  0  0  0  0  0  0  0  0  0  0
   10.1297   -1.6575   23.2324 C   0  0  0  0  0  0  0  0  0  0  0  0
    9.4684   -1.6929   26.7263 F   0  0  0  0  0  0  0  0  0  0  0  0
    7.7963   -7.7906   17.9837 C   0  0  0  0  0  0  0  0  0  0  0  0
   10.5884   -3.0725   16.7902 O   0  0  0  0  0  0  0  0  0  0  0  0
   10.4323   -5.3494   20.3516 C   0  0  0  0  0  0  0  0  0  0  0  0
    7.1156   -7.5454   16.8218 C   0  0  0  0  0  0  0  0  0  0  0  0
   10.3885   -4.4388   19.2773 C   0  0  0  0  0  0  0  0  0  0  0  0
    4.5160   -9.3822   15.0841 C   0  0  0  0  0  0  0  0  0  0  0  0
  1  3  4  0
  1 24  4  0
  2  6  4  0
  2 15  4  0
  3  5  4  0
  3  6  4  0
  4 21  4  0
  4 29  4  0
  5 15  4  0
  5 28  1  0
  6 16  4  0
  7 18  4  0
  7 26  4  0
  8 18  1  0
  8 19  4  0
  8 22  4  0
  9 12  4  0
  9 19  4  0
 10 12  4  0
 10 22  4  0
 11 20  4  0
 11 21  4  0
 12 23  1  0
 13 20  4  0
 13 29  4  0
 14 17  4  0
 14 28  4  0
 15 25  2  0
 16 27  4  0
 17 18  4  0
 20 27  1  0
 24 27  4  0
 26 28  4  0
M  END
$$$$

 Created by Python create_sdf_string function

 29 33  0  0  0  0  0  0  0  0999 V2000
    8.8270   -7.0288   18.4251 C   0  0  0  0  0  0  0  0  0  0  0  0
    9.1576   -4.6236   15.8860 O   0  0  0  0  0  0  0  0  0  0  0  0
    9.1509   -5.9108   17.7177 C   0  0  0  0  0  0  0  0  0  0  0  0
    3.6373   -9.5349   16.0582 N   0  0  0  0  0  0  0  0  0  0  0  0
    9.9275   -4.8001   18.0438 N   0  0  0  0  0  0  0  0  0  0  0  0
    8.5908   -5.7425   16.4412 C   0  0  0  0  0  0  0  0  0  0  0  0
   10.5993   -4.8981   21.6068 C   0  0  0  0  0  0  0  0  0  0  0  0
   10.4258   -3.0106   23.0998 C   0  0  0  0  0  0  0  0  0  0  0  0
   10.2148   -3.4364   25.4200 C   0  0  0  0  0  0  0  0  0  0  0  0
    9.7853   -1.1840   24.4927 C   0  0  0  0  0  0  0  0  0  0  0  0
    5.0276   -8.5227   17.5352 C   0  0  0  0  0  0  0  0  0  0  0  0
    9.8187   -2.0895   25.5800 C   0  0  0  0  0  0  0  0  0  0  0  0
    5.6473   -8.7216   15.3158 C   0  0  0  0  0  0  0  0  0  0  0  0
   10.7581   -3.1233   19.4720 N   0  0  0  0  0  0  0  0  0  0  0  0
    9.9571   -4.0573   16.8866 C   0  0  0  0  0  0  0  0  0  0  0  0
    7.6213   -6.5618   16.0087 C   0  0  0  0  0  0  0  0  0  0  0  0
   10.8583   -2.6527   20.7222 C   0  0  0  0  0  0  0  0  0  0  0  0
   10.6412   -3.5089   21.7936 C   0  0  0  0  0  0  0  0  0  0  0  0
   10.4972   -3.8968   24.1589 C   0  0  0  0  0  0  0  0  0  0  0  0
    5.9260   -8.2736   16.5517 C   0  0  0  0  0  0  0  0  0  0  0  0
    3.8816   -9.1166   17.2493 C   0  0  0  0  0  0  0  0  0  0  0  0
   10.1297   -1.6575   23.2324 C   0  0  0  0  0  0  0  0  0  0  0  0
    9.4684   -1.6929   26.7263 F   0  0  0  0  0  0  0  0  0  0  0  0
    7.7963   -7.7906   17.9837 C   0  0  0  0  0  0  0  0  0  0  0  0
   10.5884   -3.0725   16.7902 O   0  0  0  0  0  0  0  0  0  0  0  0
   10.4323   -5.3494   20.3516 C   0  0  0  0  0  0  0  0  0  0  0  0
    7.1156   -7.5454   16.8218 C   0  0  0  0  0  0  0  0  0  0  0  0
   10.3885   -4.4388   19.2773 C   0  0  0  0  0  0  0  0  0  0  0  0
    4.5160   -9.3822   15.0841 C   0  0  0  0  0  0  0  0  0  0  0  0
  1  3  4  0
  1 24  4  0
  2  6  4  0
  2 15  4  0
  3  5  4  0
  3  6  4  0
  4 21  4  0
  4 29  4  0
  5 15  4  0
  5 28  1  0
  6 16  4  0
  7 18  4  0
  7 26  4  0
  8 18  1  0
  8 19  4  0
  8 22  4  0
  9 12  4  0
  9 19  4  0
 10 12  4  0
 10 22  4  0
 11 20  4  0
 11 21  4  0
 12 23  1  0
 13 20  4  0
 13 29  4  0
 14 17  4  0
 14 28  4  0
 15 25  2  0
 16 27  4  0
 17 18  4  0
 20 27  1  0
 24 27  4  0
 26 28  4  0
M  END
$$$$

 Created by Python create_sdf_string function

 29 33  0  0  0  0  0  0  0  0999 V2000
    8.8270   -7.0288   18.4251 C   0  0  0  0  0  0  0  0  0  0  0  0
    9.1576   -4.6236   15.8860 O   0  0  0  0  0  0  0  0  0  0  0  0
    9.1509   -5.9108   17.7177 C   0  0  0  0  0  0  0  0  0  0  0  0
    3.6373   -9.5349   16.0582 N   0  0  0  0  0  0  0  0  0  0  0  0
    9.9275   -4.8001   18.0438 N   0  0  0  0  0  0  0  0  0  0  0  0
    8.5908   -5.7425   16.4412 C   0  0  0  0  0  0  0  0  0  0  0  0
   10.5993   -4.8981   21.6068 C   0  0  0  0  0  0  0  0  0  0  0  0
   10.4258   -3.0106   23.0998 C   0  0  0  0  0  0  0  0  0  0  0  0
   10.2148   -3.4364   25.4200 C   0  0  0  0  0  0  0  0  0  0  0  0
    9.7853   -1.1840   24.4927 C   0  0  0  0  0  0  0  0  0  0  0  0
    5.0276   -8.5227   17.5352 C   0  0  0  0  0  0  0  0  0  0  0  0
    9.8187   -2.0895   25.5800 C   0  0  0  0  0  0  0  0  0  0  0  0
    5.6473   -8.7216   15.3158 C   0  0  0  0  0  0  0  0  0  0  0  0
   10.7581   -3.1233   19.4720 N   0  0  0  0  0  0  0  0  0  0  0  0
    9.9571   -4.0573   16.8866 C   0  0  0  0  0  0  0  0  0  0  0  0
    7.6213   -6.5618   16.0087 C   0  0  0  0  0  0  0  0  0  0  0  0
   10.8583   -2.6527   20.7222 C   0  0  0  0  0  0  0  0  0  0  0  0
   10.6412   -3.5089   21.7936 C   0  0  0  0  0  0  0  0  0  0  0  0
   10.4972   -3.8968   24.1589 C   0  0  0  0  0  0  0  0  0  0  0  0
    5.9260   -8.2736   16.5517 C   0  0  0  0  0  0  0  0  0  0  0  0
    3.8816   -9.1166   17.2493 C   0  0  0  0  0  0  0  0  0  0  0  0
   10.1297   -1.6575   23.2324 C   0  0  0  0  0  0  0  0  0  0  0  0
    9.4684   -1.6929   26.7263 F   0  0  0  0  0  0  0  0  0  0  0  0
    7.7963   -7.7906   17.9837 C   0  0  0  0  0  0  0  0  0  0  0  0
   10.5884   -3.0725   16.7902 O   0  0  0  0  0  0  0  0  0  0  0  0
   10.4323   -5.3494   20.3516 C   0  0  0  0  0  0  0  0  0  0  0  0
    7.1156   -7.5454   16.8218 C   0  0  0  0  0  0  0  0  0  0  0  0
   10.3885   -4.4388   19.2773 C   0  0  0  0  0  0  0  0  0  0  0  0
    4.5160   -9.3822   15.0841 C   0  0  0  0  0  0  0  0  0  0  0  0
  1  3  4  0
  1 24  4  0
  2  6  4  0
  2 15  4  0
  3  5  4  0
  3  6  4  0
  4 21  4  0
  4 29  4  0
  5 15  4  0
  5 28  1  0
  6 16  4  0
  7 18  4  0
  7 26  4  0
  8 18  1  0
  8 19  4  0
  8 22  4  0
  9 12  4  0
  9 19  4  0
 10 12  4  0
 10 22  4  0
 11 20  4  0
 11 21  4  0
 12 23  1  0
 13 20  4  0
 13 29  4  0
 14 17  4  0
 14 28  4  0
 15 25  2  0
 16 27  4  0
 17 18  4  0
 20 27  1  0
 24 27  4  0
 26 28  4  0
M  END
$$$$

 Created by Python create_sdf_string function

 29 33  0  0  0  0  0  0  0  0999 V2000
    8.8270   -7.0288   18.4251 C   0  0  0  0  0  0  0  0  0  0  0  0
    9.1576   -4.6236   15.8860 O   0  0  0  0  0  0  0  0  0  0  0  0
    9.1509   -5.9108   17.7177 C   0  0  0  0  0  0  0  0  0  0  0  0
    3.6373   -9.5349   16.0582 N   0  0  0  0  0  0  0  0  0  0  0  0
    9.9275   -4.8001   18.0438 N   0  0  0  0  0  0  0  0  0  0  0  0
    8.5908   -5.7425   16.4412 C   0  0  0  0  0  0  0  0  0  0  0  0
   10.5993   -4.8981   21.6068 C   0  0  0  0  0  0  0  0  0  0  0  0
   10.4258   -3.0106   23.0998 C   0  0  0  0  0  0  0  0  0  0  0  0
   10.2148   -3.4364   25.4200 C   0  0  0  0  0  0  0  0  0  0  0  0
    9.7853   -1.1840   24.4927 C   0  0  0  0  0  0  0  0  0  0  0  0
    5.0276   -8.5227   17.5352 C   0  0  0  0  0  0  0  0  0  0  0  0
    9.8187   -2.0895   25.5800 C   0  0  0  0  0  0  0  0  0  0  0  0
    5.6473   -8.7216   15.3158 C   0  0  0  0  0  0  0  0  0  0  0  0
   10.7581   -3.1233   19.4720 N   0  0  0  0  0  0  0  0  0  0  0  0
    9.9571   -4.0573   16.8866 C   0  0  0  0  0  0  0  0  0  0  0  0
    7.6213   -6.5618   16.0087 C   0  0  0  0  0  0  0  0  0  0  0  0
   10.8583   -2.6527   20.7222 C   0  0  0  0  0  0  0  0  0  0  0  0
   10.6412   -3.5089   21.7936 C   0  0  0  0  0  0  0  0  0  0  0  0
   10.4972   -3.8968   24.1589 C   0  0  0  0  0  0  0  0  0  0  0  0
    5.9260   -8.2736   16.5517 C   0  0  0  0  0  0  0  0  0  0  0  0
    3.8816   -9.1166   17.2493 C   0  0  0  0  0  0  0  0  0  0  0  0
   10.1297   -1.6575   23.2324 C   0  0  0  0  0  0  0  0  0  0  0  0
    9.4684   -1.6929   26.7263 F   0  0  0  0  0  0  0  0  0  0  0  0
    7.7963   -7.7906   17.9837 C   0  0  0  0  0  0  0  0  0  0  0  0
   10.5884   -3.0725   16.7902 O   0  0  0  0  0  0  0  0  0  0  0  0
   10.4323   -5.3494   20.3516 C   0  0  0  0  0  0  0  0  0  0  0  0
    7.1156   -7.5454   16.8218 C   0  0  0  0  0  0  0  0  0  0  0  0
   10.3885   -4.4388   19.2773 C   0  0  0  0  0  0  0  0  0  0  0  0
    4.5160   -9.3822   15.0841 C   0  0  0  0  0  0  0  0  0  0  0  0
  1  3  4  0
  1 24  4  0
  2  6  4  0
  2 15  4  0
  3  5  4  0
  3  6  4  0
  4 21  4  0
  4 29  4  0
  5 15  4  0
  5 28  1  0
  6 16  4  0
  7 18  4  0
  7 26  4  0
  8 18  1  0
  8 19  4  0
  8 22  4  0
  9 12  4  0
  9 19  4  0
 10 12  4  0
 10 22  4  0
 11 20  4  0
 11 21  4  0
 12 23  1  0
 13 20  4  0
 13 29  4  0
 14 17  4  0
 14 28  4  0
 15 25  2  0
 16 27  4  0
 17 18  4  0
 20 27  1  0
 24 27  4  0
 26 28  4  0
M  END
$$$$

 Created by Python create_sdf_string function

 29 33  0  0  0  0  0  0  0  0999 V2000
    8.8270   -7.0288   18.4251 C   0  0  0  0  0  0  0  0  0  0  0  0
    9.1576   -4.6236   15.8860 O   0  0  0  0  0  0  0  0  0  0  0  0
    9.1509   -5.9108   17.7177 C   0  0  0  0  0  0  0  0  0  0  0  0
    3.6373   -9.5349   16.0582 N   0  0  0  0  0  0  0  0  0  0  0  0
    9.9275   -4.8001   18.0438 N   0  0  0  0  0  0  0  0  0  0  0  0
    8.5908   -5.7425   16.4412 C   0  0  0  0  0  0  0  0  0  0  0  0
   10.5993   -4.8981   21.6068 C   0  0  0  0  0  0  0  0  0  0  0  0
   10.4258   -3.0106   23.0998 C   0  0  0  0  0  0  0  0  0  0  0  0
   10.2148   -3.4364   25.4200 C   0  0  0  0  0  0  0  0  0  0  0  0
    9.7853   -1.1840   24.4927 C   0  0  0  0  0  0  0  0  0  0  0  0
    5.0276   -8.5227   17.5352 C   0  0  0  0  0  0  0  0  0  0  0  0
    9.8187   -2.0895   25.5800 C   0  0  0  0  0  0  0  0  0  0  0  0
    5.6473   -8.7216   15.3158 C   0  0  0  0  0  0  0  0  0  0  0  0
   10.7581   -3.1233   19.4720 N   0  0  0  0  0  0  0  0  0  0  0  0
    9.9571   -4.0573   16.8866 C   0  0  0  0  0  0  0  0  0  0  0  0
    7.6213   -6.5618   16.0087 C   0  0  0  0  0  0  0  0  0  0  0  0
   10.8583   -2.6527   20.7222 C   0  0  0  0  0  0  0  0  0  0  0  0
   10.6412   -3.5089   21.7936 C   0  0  0  0  0  0  0  0  0  0  0  0
   10.4972   -3.8968   24.1589 C   0  0  0  0  0  0  0  0  0  0  0  0
    5.9260   -8.2736   16.5517 C   0  0  0  0  0  0  0  0  0  0  0  0
    3.8816   -9.1166   17.2493 C   0  0  0  0  0  0  0  0  0  0  0  0
   10.1297   -1.6575   23.2324 C   0  0  0  0  0  0  0  0  0  0  0  0
    9.4684   -1.6929   26.7263 F   0  0  0  0  0  0  0  0  0  0  0  0
    7.7963   -7.7906   17.9837 C   0  0  0  0  0  0  0  0  0  0  0  0
   10.5884   -3.0725   16.7902 O   0  0  0  0  0  0  0  0  0  0  0  0
   10.4323   -5.3494   20.3516 C   0  0  0  0  0  0  0  0  0  0  0  0
    7.1156   -7.5454   16.8218 C   0  0  0  0  0  0  0  0  0  0  0  0
   10.3885   -4.4388   19.2773 C   0  0  0  0  0  0  0  0  0  0  0  0
    4.5160   -9.3822   15.0841 C   0  0  0  0  0  0  0  0  0  0  0  0
  1  3  4  0
  1 24  4  0
  2  6  4  0
  2 15  4  0
  3  5  4  0
  3  6  4  0
  4 21  4  0
  4 29  4  0
  5 15  4  0
  5 28  1  0
  6 16  4  0
  7 18  4  0
  7 26  4  0
  8 18  1  0
  8 19  4  0
  8 22  4  0
  9 12  4  0
  9 19  4  0
 10 12  4  0
 10 22  4  0
 11 20  4  0
 11 21  4  0
 12 23  1  0
 13 20  4  0
 13 29  4  0
 14 17  4  0
 14 28  4  0
 15 25  2  0
 16 27  4  0
 17 18  4  0
 20 27  1  0
 24 27  4  0
 26 28  4  0
M  END
$$$$

 Created by Python create_sdf_string function

 29 33  0  0  0  0  0  0  0  0999 V2000
    8.8270   -7.0288   18.4251 C   0  0  0  0  0  0  0  0  0  0  0  0
    9.1576   -4.6236   15.8860 O   0  0  0  0  0  0  0  0  0  0  0  0
    9.1509   -5.9108   17.7177 C   0  0  0  0  0  0  0  0  0  0  0  0
    3.6373   -9.5349   16.0582 N   0  0  0  0  0  0  0  0  0  0  0  0
    9.9275   -4.8001   18.0438 N   0  0  0  0  0  0  0  0  0  0  0  0
    8.5908   -5.7425   16.4412 C   0  0  0  0  0  0  0  0  0  0  0  0
   10.5993   -4.8981   21.6068 C   0  0  0  0  0  0  0  0  0  0  0  0
   10.4258   -3.0106   23.0998 C   0  0  0  0  0  0  0  0  0  0  0  0
   10.2148   -3.4364   25.4200 C   0  0  0  0  0  0  0  0  0  0  0  0
    9.7853   -1.1840   24.4927 C   0  0  0  0  0  0  0  0  0  0  0  0
    5.0276   -8.5227   17.5352 C   0  0  0  0  0  0  0  0  0  0  0  0
    9.8187   -2.0895   25.5800 C   0  0  0  0  0  0  0  0  0  0  0  0
    5.6473   -8.7216   15.3158 C   0  0  0  0  0  0  0  0  0  0  0  0
   10.7581   -3.1233   19.4720 N   0  0  0  0  0  0  0  0  0  0  0  0
    9.9571   -4.0573   16.8866 C   0  0  0  0  0  0  0  0  0  0  0  0
    7.6213   -6.5618   16.0087 C   0  0  0  0  0  0  0  0  0  0  0  0
   10.8583   -2.6527   20.7222 C   0  0  0  0  0  0  0  0  0  0  0  0
   10.6412   -3.5089   21.7936 C   0  0  0  0  0  0  0  0  0  0  0  0
   10.4972   -3.8968   24.1589 C   0  0  0  0  0  0  0  0  0  0  0  0
    5.9260   -8.2736   16.5517 C   0  0  0  0  0  0  0  0  0  0  0  0
    3.8816   -9.1166   17.2493 C   0  0  0  0  0  0  0  0  0  0  0  0
   10.1297   -1.6575   23.2324 C   0  0  0  0  0  0  0  0  0  0  0  0
    9.4684   -1.6929   26.7263 F   0  0  0  0  0  0  0  0  0  0  0  0
    7.7963   -7.7906   17.9837 C   0  0  0  0  0  0  0  0  0  0  0  0
   10.5884   -3.0725   16.7902 O   0  0  0  0  0  0  0  0  0  0  0  0
   10.4323   -5.3494   20.3516 C   0  0  0  0  0  0  0  0  0  0  0  0
    7.1156   -7.5454   16.8218 C   0  0  0  0  0  0  0  0  0  0  0  0
   10.3885   -4.4388   19.2773 C   0  0  0  0  0  0  0  0  0  0  0  0
    4.5160   -9.3822   15.0841 C   0  0  0  0  0  0  0  0  0  0  0  0
  1  3  4  0
  1 24  4  0
  2  6  4  0
  2 15  4  0
  3  5  4  0
  3  6  4  0
  4 21  4  0
  4 29  4  0
  5 15  4  0
  5 28  1  0
  6 16  4  0
  7 18  4  0
  7 26  4  0
  8 18  1  0
  8 19  4  0
  8 22  4  0
  9 12  4  0
  9 19  4  0
 10 12  4  0
 10 22  4  0
 11 20  4  0
 11 21  4  0
 12 23  1  0
 13 20  4  0
 13 29  4  0
 14 17  4  0
 14 28  4  0
 15 25  2  0
 16 27  4  0
 17 18  4  0
 20 27  1  0
 24 27  4  0
 26 28  4  0
M  END
$$$$

 Created by Python create_sdf_string function

 29 33  0  0  0  0  0  0  0  0999 V2000
    8.8270   -7.0288   18.4251 C   0  0  0  0  0  0  0  0  0  0  0  0
    9.1576   -4.6236   15.8860 O   0  0  0  0  0  0  0  0  0  0  0  0
    9.1509   -5.9108   17.7177 C   0  0  0  0  0  0  0  0  0  0  0  0
    3.6373   -9.5349   16.0582 N   0  0  0  0  0  0  0  0  0  0  0  0
    9.9275   -4.8001   18.0438 N   0  0  0  0  0  0  0  0  0  0  0  0
    8.5908   -5.7425   16.4412 C   0  0  0  0  0  0  0  0  0  0  0  0
   10.5993   -4.8981   21.6068 C   0  0  0  0  0  0  0  0  0  0  0  0
   10.4258   -3.0106   23.0998 C   0  0  0  0  0  0  0  0  0  0  0  0
   10.2148   -3.4364   25.4200 C   0  0  0  0  0  0  0  0  0  0  0  0
    9.7853   -1.1840   24.4927 C   0  0  0  0  0  0  0  0  0  0  0  0
    5.0276   -8.5227   17.5352 C   0  0  0  0  0  0  0  0  0  0  0  0
    9.8187   -2.0895   25.5800 C   0  0  0  0  0  0  0  0  0  0  0  0
    5.6473   -8.7216   15.3158 C   0  0  0  0  0  0  0  0  0  0  0  0
   10.7581   -3.1233   19.4720 N   0  0  0  0  0  0  0  0  0  0  0  0
    9.9571   -4.0573   16.8866 C   0  0  0  0  0  0  0  0  0  0  0  0
    7.6213   -6.5618   16.0087 C   0  0  0  0  0  0  0  0  0  0  0  0
   10.8583   -2.6527   20.7222 C   0  0  0  0  0  0  0  0  0  0  0  0
   10.6412   -3.5089   21.7936 C   0  0  0  0  0  0  0  0  0  0  0  0
   10.4972   -3.8968   24.1589 C   0  0  0  0  0  0  0  0  0  0  0  0
    5.9260   -8.2736   16.5517 C   0  0  0  0  0  0  0  0  0  0  0  0
    3.8816   -9.1166   17.2493 C   0  0  0  0  0  0  0  0  0  0  0  0
   10.1297   -1.6575   23.2324 C   0  0  0  0  0  0  0  0  0  0  0  0
    9.4684   -1.6929   26.7263 F   0  0  0  0  0  0  0  0  0  0  0  0
    7.7963   -7.7906   17.9837 C   0  0  0  0  0  0  0  0  0  0  0  0
   10.5884   -3.0725   16.7902 O   0  0  0  0  0  0  0  0  0  0  0  0
   10.4323   -5.3494   20.3516 C   0  0  0  0  0  0  0  0  0  0  0  0
    7.1156   -7.5454   16.8218 C   0  0  0  0  0  0  0  0  0  0  0  0
   10.3885   -4.4388   19.2773 C   0  0  0  0  0  0  0  0  0  0  0  0
    4.5160   -9.3822   15.0841 C   0  0  0  0  0  0  0  0  0  0  0  0
  1  3  4  0
  1 24  4  0
  2  6  4  0
  2 15  4  0
  3  5  4  0
  3  6  4  0
  4 21  4  0
  4 29  4  0
  5 15  4  0
  5 28  1  0
  6 16  4  0
  7 18  4  0
  7 26  4  0
  8 18  1  0
  8 19  4  0
  8 22  4  0
  9 12  4  0
  9 19  4  0
 10 12  4  0
 10 22  4  0
 11 20  4  0
 11 21  4  0
 12 23  1  0
 13 20  4  0
 13 29  4  0
 14 17  4  0
 14 28  4  0
 15 25  2  0
 16 27  4  0
 17 18  4  0
 20 27  1  0
 24 27  4  0
 26 28  4  0
M  END
$$$$

 Created by Python create_sdf_string function

 29 33  0  0  0  0  0  0  0  0999 V2000
    8.8270   -7.0288   18.4251 C   0  0  0  0  0  0  0  0  0  0  0  0
    9.1576   -4.6236   15.8860 O   0  0  0  0  0  0  0  0  0  0  0  0
    9.1509   -5.9108   17.7177 C   0  0  0  0  0  0  0  0  0  0  0  0
    3.6373   -9.5349   16.0582 N   0  0  0  0  0  0  0  0  0  0  0  0
    9.9275   -4.8001   18.0438 N   0  0  0  0  0  0  0  0  0  0  0  0
    8.5908   -5.7425   16.4412 C   0  0  0  0  0  0  0  0  0  0  0  0
   10.5993   -4.8981   21.6068 C   0  0  0  0  0  0  0  0  0  0  0  0
   10.4258   -3.0106   23.0998 C   0  0  0  0  0  0  0  0  0  0  0  0
   10.2148   -3.4364   25.4200 C   0  0  0  0  0  0  0  0  0  0  0  0
    9.7853   -1.1840   24.4927 C   0  0  0  0  0  0  0  0  0  0  0  0
    5.0276   -8.5227   17.5352 C   0  0  0  0  0  0  0  0  0  0  0  0
    9.8187   -2.0895   25.5800 C   0  0  0  0  0  0  0  0  0  0  0  0
    5.6473   -8.7216   15.3158 C   0  0  0  0  0  0  0  0  0  0  0  0
   10.7581   -3.1233   19.4720 N   0  0  0  0  0  0  0  0  0  0  0  0
    9.9571   -4.0573   16.8866 C   0  0  0  0  0  0  0  0  0  0  0  0
    7.6213   -6.5618   16.0087 C   0  0  0  0  0  0  0  0  0  0  0  0
   10.8583   -2.6527   20.7222 C   0  0  0  0  0  0  0  0  0  0  0  0
   10.6412   -3.5089   21.7936 C   0  0  0  0  0  0  0  0  0  0  0  0
   10.4972   -3.8968   24.1589 C   0  0  0  0  0  0  0  0  0  0  0  0
    5.9260   -8.2736   16.5517 C   0  0  0  0  0  0  0  0  0  0  0  0
    3.8816   -9.1166   17.2493 C   0  0  0  0  0  0  0  0  0  0  0  0
   10.1297   -1.6575   23.2324 C   0  0  0  0  0  0  0  0  0  0  0  0
    9.4684   -1.6929   26.7263 F   0  0  0  0  0  0  0  0  0  0  0  0
    7.7963   -7.7906   17.9837 C   0  0  0  0  0  0  0  0  0  0  0  0
   10.5884   -3.0725   16.7902 O   0  0  0  0  0  0  0  0  0  0  0  0
   10.4323   -5.3494   20.3516 C   0  0  0  0  0  0  0  0  0  0  0  0
    7.1156   -7.5454   16.8218 C   0  0  0  0  0  0  0  0  0  0  0  0
   10.3885   -4.4388   19.2773 C   0  0  0  0  0  0  0  0  0  0  0  0
    4.5160   -9.3822   15.0841 C   0  0  0  0  0  0  0  0  0  0  0  0
  1  3  4  0
  1 24  4  0
  2  6  4  0
  2 15  4  0
  3  5  4  0
  3  6  4  0
  4 21  4  0
  4 29  4  0
  5 15  4  0
  5 28  1  0
  6 16  4  0
  7 18  4  0
  7 26  4  0
  8 18  1  0
  8 19  4  0
  8 22  4  0
  9 12  4  0
  9 19  4  0
 10 12  4  0
 10 22  4  0
 11 20  4  0
 11 21  4  0
 12 23  1  0
 13 20  4  0
 13 29  4  0
 14 17  4  0
 14 28  4  0
 15 25  2  0
 16 27  4  0
 17 18  4  0
 20 27  1  0
 24 27  4  0
 26 28  4  0
M  END
$$$$

 Created by Python create_sdf_string function

 29 33  0  0  0  0  0  0  0  0999 V2000
    8.8270   -7.0288   18.4251 C   0  0  0  0  0  0  0  0  0  0  0  0
    9.1576   -4.6236   15.8860 O   0  0  0  0  0  0  0  0  0  0  0  0
    9.1509   -5.9108   17.7177 C   0  0  0  0  0  0  0  0  0  0  0  0
    3.6373   -9.5349   16.0582 N   0  0  0  0  0  0  0  0  0  0  0  0
    9.9275   -4.8001   18.0438 N   0  0  0  0  0  0  0  0  0  0  0  0
    8.5908   -5.7425   16.4412 C   0  0  0  0  0  0  0  0  0  0  0  0
   10.5993   -4.8981   21.6068 C   0  0  0  0  0  0  0  0  0  0  0  0
   10.4258   -3.0106   23.0998 C   0  0  0  0  0  0  0  0  0  0  0  0
   10.2148   -3.4364   25.4200 C   0  0  0  0  0  0  0  0  0  0  0  0
    9.7853   -1.1840   24.4927 C   0  0  0  0  0  0  0  0  0  0  0  0
    5.0276   -8.5227   17.5352 C   0  0  0  0  0  0  0  0  0  0  0  0
    9.8187   -2.0895   25.5800 C   0  0  0  0  0  0  0  0  0  0  0  0
    5.6473   -8.7216   15.3158 C   0  0  0  0  0  0  0  0  0  0  0  0
   10.7581   -3.1233   19.4720 N   0  0  0  0  0  0  0  0  0  0  0  0
    9.9571   -4.0573   16.8866 C   0  0  0  0  0  0  0  0  0  0  0  0
    7.6213   -6.5618   16.0087 C   0  0  0  0  0  0  0  0  0  0  0  0
   10.8583   -2.6527   20.7222 C   0  0  0  0  0  0  0  0  0  0  0  0
   10.6412   -3.5089   21.7936 C   0  0  0  0  0  0  0  0  0  0  0  0
   10.4972   -3.8968   24.1589 C   0  0  0  0  0  0  0  0  0  0  0  0
    5.9260   -8.2736   16.5517 C   0  0  0  0  0  0  0  0  0  0  0  0
    3.8816   -9.1166   17.2493 C   0  0  0  0  0  0  0  0  0  0  0  0
   10.1297   -1.6575   23.2324 C   0  0  0  0  0  0  0  0  0  0  0  0
    9.4684   -1.6929   26.7263 F   0  0  0  0  0  0  0  0  0  0  0  0
    7.7963   -7.7906   17.9837 C   0  0  0  0  0  0  0  0  0  0  0  0
   10.5884   -3.0725   16.7902 O   0  0  0  0  0  0  0  0  0  0  0  0
   10.4323   -5.3494   20.3516 C   0  0  0  0  0  0  0  0  0  0  0  0
    7.1156   -7.5454   16.8218 C   0  0  0  0  0  0  0  0  0  0  0  0
   10.3885   -4.4388   19.2773 C   0  0  0  0  0  0  0  0  0  0  0  0
    4.5160   -9.3822   15.0841 C   0  0  0  0  0  0  0  0  0  0  0  0
  1  3  4  0
  1 24  4  0
  2  6  4  0
  2 15  4  0
  3  5  4  0
  3  6  4  0
  4 21  4  0
  4 29  4  0
  5 15  4  0
  5 28  1  0
  6 16  4  0
  7 18  4  0
  7 26  4  0
  8 18  1  0
  8 19  4  0
  8 22  4  0
  9 12  4  0
  9 19  4  0
 10 12  4  0
 10 22  4  0
 11 20  4  0
 11 21  4  0
 12 23  1  0
 13 20  4  0
 13 29  4  0
 14 17  4  0
 14 28  4  0
 15 25  2  0
 16 27  4  0
 17 18  4  0
 20 27  1  0
 24 27  4  0
 26 28  4  0
M  END
$$$$

 Created by Python create_sdf_string function

 29 33  0  0  0  0  0  0  0  0999 V2000
    8.8270   -7.0288   18.4251 C   0  0  0  0  0  0  0  0  0  0  0  0
    9.1576   -4.6236   15.8860 O   0  0  0  0  0  0  0  0  0  0  0  0
    9.1509   -5.9108   17.7177 C   0  0  0  0  0  0  0  0  0  0  0  0
    3.6373   -9.5349   16.0582 N   0  0  0  0  0  0  0  0  0  0  0  0
    9.9275   -4.8001   18.0438 N   0  0  0  0  0  0  0  0  0  0  0  0
    8.5908   -5.7425   16.4412 C   0  0  0  0  0  0  0  0  0  0  0  0
   10.5993   -4.8981   21.6068 C   0  0  0  0  0  0  0  0  0  0  0  0
   10.4258   -3.0106   23.0998 C   0  0  0  0  0  0  0  0  0  0  0  0
   10.2148   -3.4364   25.4200 C   0  0  0  0  0  0  0  0  0  0  0  0
    9.7853   -1.1840   24.4927 C   0  0  0  0  0  0  0  0  0  0  0  0
    5.0276   -8.5227   17.5352 C   0  0  0  0  0  0  0  0  0  0  0  0
    9.8187   -2.0895   25.5800 C   0  0  0  0  0  0  0  0  0  0  0  0
    5.6473   -8.7216   15.3158 C   0  0  0  0  0  0  0  0  0  0  0  0
   10.7581   -3.1233   19.4720 N   0  0  0  0  0  0  0  0  0  0  0  0
    9.9571   -4.0573   16.8866 C   0  0  0  0  0  0  0  0  0  0  0  0
    7.6213   -6.5618   16.0087 C   0  0  0  0  0  0  0  0  0  0  0  0
   10.8583   -2.6527   20.7222 C   0  0  0  0  0  0  0  0  0  0  0  0
   10.6412   -3.5089   21.7936 C   0  0  0  0  0  0  0  0  0  0  0  0
   10.4972   -3.8968   24.1589 C   0  0  0  0  0  0  0  0  0  0  0  0
    5.9260   -8.2736   16.5517 C   0  0  0  0  0  0  0  0  0  0  0  0
    3.8816   -9.1166   17.2493 C   0  0  0  0  0  0  0  0  0  0  0  0
   10.1297   -1.6575   23.2324 C   0  0  0  0  0  0  0  0  0  0  0  0
    9.4684   -1.6929   26.7263 F   0  0  0  0  0  0  0  0  0  0  0  0
    7.7963   -7.7906   17.9837 C   0  0  0  0  0  0  0  0  0  0  0  0
   10.5884   -3.0725   16.7902 O   0  0  0  0  0  0  0  0  0  0  0  0
   10.4323   -5.3494   20.3516 C   0  0  0  0  0  0  0  0  0  0  0  0
    7.1156   -7.5454   16.8218 C   0  0  0  0  0  0  0  0  0  0  0  0
   10.3885   -4.4388   19.2773 C   0  0  0  0  0  0  0  0  0  0  0  0
    4.5160   -9.3822   15.0841 C   0  0  0  0  0  0  0  0  0  0  0  0
  1  3  4  0
  1 24  4  0
  2  6  4  0
  2 15  4  0
  3  5  4  0
  3  6  4  0
  4 21  4  0
  4 29  4  0
  5 15  4  0
  5 28  1  0
  6 16  4  0
  7 18  4  0
  7 26  4  0
  8 18  1  0
  8 19  4  0
  8 22  4  0
  9 12  4  0
  9 19  4  0
 10 12  4  0
 10 22  4  0
 11 20  4  0
 11 21  4  0
 12 23  1  0
 13 20  4  0
 13 29  4  0
 14 17  4  0
 14 28  4  0
 15 25  2  0
 16 27  4  0
 17 18  4  0
 20 27  1  0
 24 27  4  0
 26 28  4  0
M  END
$$$$

 Created by Python create_sdf_string function

 29 33  0  0  0  0  0  0  0  0999 V2000
    8.8270   -7.0288   18.4251 C   0  0  0  0  0  0  0  0  0  0  0  0
    9.1576   -4.6236   15.8860 O   0  0  0  0  0  0  0  0  0  0  0  0
    9.1509   -5.9108   17.7177 C   0  0  0  0  0  0  0  0  0  0  0  0
    3.6373   -9.5349   16.0582 N   0  0  0  0  0  0  0  0  0  0  0  0
    9.9275   -4.8001   18.0438 N   0  0  0  0  0  0  0  0  0  0  0  0
    8.5908   -5.7425   16.4412 C   0  0  0  0  0  0  0  0  0  0  0  0
   10.5993   -4.8981   21.6068 C   0  0  0  0  0  0  0  0  0  0  0  0
   10.4258   -3.0106   23.0998 C   0  0  0  0  0  0  0  0  0  0  0  0
   10.2148   -3.4364   25.4200 C   0  0  0  0  0  0  0  0  0  0  0  0
    9.7853   -1.1840   24.4927 C   0  0  0  0  0  0  0  0  0  0  0  0
    5.0276   -8.5227   17.5352 C   0  0  0  0  0  0  0  0  0  0  0  0
    9.8187   -2.0895   25.5800 C   0  0  0  0  0  0  0  0  0  0  0  0
    5.6473   -8.7216   15.3158 C   0  0  0  0  0  0  0  0  0  0  0  0
   10.7581   -3.1233   19.4720 N   0  0  0  0  0  0  0  0  0  0  0  0
    9.9571   -4.0573   16.8866 C   0  0  0  0  0  0  0  0  0  0  0  0
    7.6213   -6.5618   16.0087 C   0  0  0  0  0  0  0  0  0  0  0  0
   10.8583   -2.6527   20.7222 C   0  0  0  0  0  0  0  0  0  0  0  0
   10.6412   -3.5089   21.7936 C   0  0  0  0  0  0  0  0  0  0  0  0
   10.4972   -3.8968   24.1589 C   0  0  0  0  0  0  0  0  0  0  0  0
    5.9260   -8.2736   16.5517 C   0  0  0  0  0  0  0  0  0  0  0  0
    3.8816   -9.1166   17.2493 C   0  0  0  0  0  0  0  0  0  0  0  0
   10.1297   -1.6575   23.2324 C   0  0  0  0  0  0  0  0  0  0  0  0
    9.4684   -1.6929   26.7263 F   0  0  0  0  0  0  0  0  0  0  0  0
    7.7963   -7.7906   17.9837 C   0  0  0  0  0  0  0  0  0  0  0  0
   10.5884   -3.0725   16.7902 O   0  0  0  0  0  0  0  0  0  0  0  0
   10.4323   -5.3494   20.3516 C   0  0  0  0  0  0  0  0  0  0  0  0
    7.1156   -7.5454   16.8218 C   0  0  0  0  0  0  0  0  0  0  0  0
   10.3885   -4.4388   19.2773 C   0  0  0  0  0  0  0  0  0  0  0  0
    4.5160   -9.3822   15.0841 C   0  0  0  0  0  0  0  0  0  0  0  0
  1  3  4  0
  1 24  4  0
  2  6  4  0
  2 15  4  0
  3  5  4  0
  3  6  4  0
  4 21  4  0
  4 29  4  0
  5 15  4  0
  5 28  1  0
  6 16  4  0
  7 18  4  0
  7 26  4  0
  8 18  1  0
  8 19  4  0
  8 22  4  0
  9 12  4  0
  9 19  4  0
 10 12  4  0
 10 22  4  0
 11 20  4  0
 11 21  4  0
 12 23  1  0
 13 20  4  0
 13 29  4  0
 14 17  4  0
 14 28  4  0
 15 25  2  0
 16 27  4  0
 17 18  4  0
 20 27  1  0
 24 27  4  0
 26 28  4  0
M  END
$$$$

 Created by Python create_sdf_string function

 29 33  0  0  0  0  0  0  0  0999 V2000
    8.8270   -7.0288   18.4251 C   0  0  0  0  0  0  0  0  0  0  0  0
    9.1576   -4.6236   15.8860 O   0  0  0  0  0  0  0  0  0  0  0  0
    9.1509   -5.9108   17.7177 C   0  0  0  0  0  0  0  0  0  0  0  0
    3.6373   -9.5349   16.0582 N   0  0  0  0  0  0  0  0  0  0  0  0
    9.9275   -4.8001   18.0438 N   0  0  0  0  0  0  0  0  0  0  0  0
    8.5908   -5.7425   16.4412 C   0  0  0  0  0  0  0  0  0  0  0  0
   10.5993   -4.8981   21.6068 C   0  0  0  0  0  0  0  0  0  0  0  0
   10.4258   -3.0106   23.0998 C   0  0  0  0  0  0  0  0  0  0  0  0
   10.2148   -3.4364   25.4200 C   0  0  0  0  0  0  0  0  0  0  0  0
    9.7853   -1.1840   24.4927 C   0  0  0  0  0  0  0  0  0  0  0  0
    5.0276   -8.5227   17.5352 C   0  0  0  0  0  0  0  0  0  0  0  0
    9.8187   -2.0895   25.5800 C   0  0  0  0  0  0  0  0  0  0  0  0
    5.6473   -8.7216   15.3158 C   0  0  0  0  0  0  0  0  0  0  0  0
   10.7581   -3.1233   19.4720 N   0  0  0  0  0  0  0  0  0  0  0  0
    9.9571   -4.0573   16.8866 C   0  0  0  0  0  0  0  0  0  0  0  0
    7.6213   -6.5618   16.0087 C   0  0  0  0  0  0  0  0  0  0  0  0
   10.8583   -2.6527   20.7222 C   0  0  0  0  0  0  0  0  0  0  0  0
   10.6412   -3.5089   21.7936 C   0  0  0  0  0  0  0  0  0  0  0  0
   10.4972   -3.8968   24.1589 C   0  0  0  0  0  0  0  0  0  0  0  0
    5.9260   -8.2736   16.5517 C   0  0  0  0  0  0  0  0  0  0  0  0
    3.8816   -9.1166   17.2493 C   0  0  0  0  0  0  0  0  0  0  0  0
   10.1297   -1.6575   23.2324 C   0  0  0  0  0  0  0  0  0  0  0  0
    9.4684   -1.6929   26.7263 F   0  0  0  0  0  0  0  0  0  0  0  0
    7.7963   -7.7906   17.9837 C   0  0  0  0  0  0  0  0  0  0  0  0
   10.5884   -3.0725   16.7902 O   0  0  0  0  0  0  0  0  0  0  0  0
   10.4323   -5.3494   20.3516 C   0  0  0  0  0  0  0  0  0  0  0  0
    7.1156   -7.5454   16.8218 C   0  0  0  0  0  0  0  0  0  0  0  0
   10.3885   -4.4388   19.2773 C   0  0  0  0  0  0  0  0  0  0  0  0
    4.5160   -9.3822   15.0841 C   0  0  0  0  0  0  0  0  0  0  0  0
  1  3  4  0
  1 24  4  0
  2  6  4  0
  2 15  4  0
  3  5  4  0
  3  6  4  0
  4 21  4  0
  4 29  4  0
  5 15  4  0
  5 28  1  0
  6 16  4  0
  7 18  4  0
  7 26  4  0
  8 18  1  0
  8 19  4  0
  8 22  4  0
  9 12  4  0
  9 19  4  0
 10 12  4  0
 10 22  4  0
 11 20  4  0
 11 21  4  0
 12 23  1  0
 13 20  4  0
 13 29  4  0
 14 17  4  0
 14 28  4  0
 15 25  2  0
 16 27  4  0
 17 18  4  0
 20 27  1  0
 24 27  4  0
 26 28  4  0
M  END
$$$$

 Created by Python create_sdf_string function

 29 33  0  0  0  0  0  0  0  0999 V2000
    8.8270   -7.0288   18.4251 C   0  0  0  0  0  0  0  0  0  0  0  0
    9.1576   -4.6236   15.8860 O   0  0  0  0  0  0  0  0  0  0  0  0
    9.1509   -5.9108   17.7177 C   0  0  0  0  0  0  0  0  0  0  0  0
    3.6373   -9.5349   16.0582 N   0  0  0  0  0  0  0  0  0  0  0  0
    9.9275   -4.8001   18.0438 N   0  0  0  0  0  0  0  0  0  0  0  0
    8.5908   -5.7425   16.4412 C   0  0  0  0  0  0  0  0  0  0  0  0
   10.5993   -4.8981   21.6068 C   0  0  0  0  0  0  0  0  0  0  0  0
   10.4258   -3.0106   23.0998 C   0  0  0  0  0  0  0  0  0  0  0  0
   10.2148   -3.4364   25.4200 C   0  0  0  0  0  0  0  0  0  0  0  0
    9.7853   -1.1840   24.4927 C   0  0  0  0  0  0  0  0  0  0  0  0
    5.0276   -8.5227   17.5352 C   0  0  0  0  0  0  0  0  0  0  0  0
    9.8187   -2.0895   25.5800 C   0  0  0  0  0  0  0  0  0  0  0  0
    5.6473   -8.7216   15.3158 C   0  0  0  0  0  0  0  0  0  0  0  0
   10.7581   -3.1233   19.4720 N   0  0  0  0  0  0  0  0  0  0  0  0
    9.9571   -4.0573   16.8866 C   0  0  0  0  0  0  0  0  0  0  0  0
    7.6213   -6.5618   16.0087 C   0  0  0  0  0  0  0  0  0  0  0  0
   10.8583   -2.6527   20.7222 C   0  0  0  0  0  0  0  0  0  0  0  0
   10.6412   -3.5089   21.7936 C   0  0  0  0  0  0  0  0  0  0  0  0
   10.4972   -3.8968   24.1589 C   0  0  0  0  0  0  0  0  0  0  0  0
    5.9260   -8.2736   16.5517 C   0  0  0  0  0  0  0  0  0  0  0  0
    3.8816   -9.1166   17.2493 C   0  0  0  0  0  0  0  0  0  0  0  0
   10.1297   -1.6575   23.2324 C   0  0  0  0  0  0  0  0  0  0  0  0
    9.4684   -1.6929   26.7263 F   0  0  0  0  0  0  0  0  0  0  0  0
    7.7963   -7.7906   17.9837 C   0  0  0  0  0  0  0  0  0  0  0  0
   10.5884   -3.0725   16.7902 O   0  0  0  0  0  0  0  0  0  0  0  0
   10.4323   -5.3494   20.3516 C   0  0  0  0  0  0  0  0  0  0  0  0
    7.1156   -7.5454   16.8218 C   0  0  0  0  0  0  0  0  0  0  0  0
   10.3885   -4.4388   19.2773 C   0  0  0  0  0  0  0  0  0  0  0  0
    4.5160   -9.3822   15.0841 C   0  0  0  0  0  0  0  0  0  0  0  0
  1  3  4  0
  1 24  4  0
  2  6  4  0
  2 15  4  0
  3  5  4  0
  3  6  4  0
  4 21  4  0
  4 29  4  0
  5 15  4  0
  5 28  1  0
  6 16  4  0
  7 18  4  0
  7 26  4  0
  8 18  1  0
  8 19  4  0
  8 22  4  0
  9 12  4  0
  9 19  4  0
 10 12  4  0
 10 22  4  0
 11 20  4  0
 11 21  4  0
 12 23  1  0
 13 20  4  0
 13 29  4  0
 14 17  4  0
 14 28  4  0
 15 25  2  0
 16 27  4  0
 17 18  4  0
 20 27  1  0
 24 27  4  0
 26 28  4  0
M  END
$$$$

 Created by Python create_sdf_string function

 29 33  0  0  0  0  0  0  0  0999 V2000
    8.8270   -7.0288   18.4251 C   0  0  0  0  0  0  0  0  0  0  0  0
    9.1576   -4.6236   15.8860 O   0  0  0  0  0  0  0  0  0  0  0  0
    9.1509   -5.9108   17.7177 C   0  0  0  0  0  0  0  0  0  0  0  0
    3.6373   -9.5349   16.0582 N   0  0  0  0  0  0  0  0  0  0  0  0
    9.9275   -4.8001   18.0438 N   0  0  0  0  0  0  0  0  0  0  0  0
    8.5908   -5.7425   16.4412 C   0  0  0  0  0  0  0  0  0  0  0  0
   10.5993   -4.8981   21.6068 C   0  0  0  0  0  0  0  0  0  0  0  0
   10.4258   -3.0106   23.0998 C   0  0  0  0  0  0  0  0  0  0  0  0
   10.2148   -3.4364   25.4200 C   0  0  0  0  0  0  0  0  0  0  0  0
    9.7853   -1.1840   24.4927 C   0  0  0  0  0  0  0  0  0  0  0  0
    5.0276   -8.5227   17.5352 C   0  0  0  0  0  0  0  0  0  0  0  0
    9.8187   -2.0895   25.5800 C   0  0  0  0  0  0  0  0  0  0  0  0
    5.6473   -8.7216   15.3158 C   0  0  0  0  0  0  0  0  0  0  0  0
   10.7581   -3.1233   19.4720 N   0  0  0  0  0  0  0  0  0  0  0  0
    9.9571   -4.0573   16.8866 C   0  0  0  0  0  0  0  0  0  0  0  0
    7.6213   -6.5618   16.0087 C   0  0  0  0  0  0  0  0  0  0  0  0
   10.8583   -2.6527   20.7222 C   0  0  0  0  0  0  0  0  0  0  0  0
   10.6412   -3.5089   21.7936 C   0  0  0  0  0  0  0  0  0  0  0  0
   10.4972   -3.8968   24.1589 C   0  0  0  0  0  0  0  0  0  0  0  0
    5.9260   -8.2736   16.5517 C   0  0  0  0  0  0  0  0  0  0  0  0
    3.8816   -9.1166   17.2493 C   0  0  0  0  0  0  0  0  0  0  0  0
   10.1297   -1.6575   23.2324 C   0  0  0  0  0  0  0  0  0  0  0  0
    9.4684   -1.6929   26.7263 F   0  0  0  0  0  0  0  0  0  0  0  0
    7.7963   -7.7906   17.9837 C   0  0  0  0  0  0  0  0  0  0  0  0
   10.5884   -3.0725   16.7902 O   0  0  0  0  0  0  0  0  0  0  0  0
   10.4323   -5.3494   20.3516 C   0  0  0  0  0  0  0  0  0  0  0  0
    7.1156   -7.5454   16.8218 C   0  0  0  0  0  0  0  0  0  0  0  0
   10.3885   -4.4388   19.2773 C   0  0  0  0  0  0  0  0  0  0  0  0
    4.5160   -9.3822   15.0841 C   0  0  0  0  0  0  0  0  0  0  0  0
  1  3  4  0
  1 24  4  0
  2  6  4  0
  2 15  4  0
  3  5  4  0
  3  6  4  0
  4 21  4  0
  4 29  4  0
  5 15  4  0
  5 28  1  0
  6 16  4  0
  7 18  4  0
  7 26  4  0
  8 18  1  0
  8 19  4  0
  8 22  4  0
  9 12  4  0
  9 19  4  0
 10 12  4  0
 10 22  4  0
 11 20  4  0
 11 21  4  0
 12 23  1  0
 13 20  4  0
 13 29  4  0
 14 17  4  0
 14 28  4  0
 15 25  2  0
 16 27  4  0
 17 18  4  0
 20 27  1  0
 24 27  4  0
 26 28  4  0
M  END
$$$$

 Created by Python create_sdf_string function

 29 33  0  0  0  0  0  0  0  0999 V2000
    8.8270   -7.0288   18.4251 C   0  0  0  0  0  0  0  0  0  0  0  0
    9.1576   -4.6236   15.8860 O   0  0  0  0  0  0  0  0  0  0  0  0
    9.1509   -5.9108   17.7177 C   0  0  0  0  0  0  0  0  0  0  0  0
    3.6373   -9.5349   16.0582 N   0  0  0  0  0  0  0  0  0  0  0  0
    9.9275   -4.8001   18.0438 N   0  0  0  0  0  0  0  0  0  0  0  0
    8.5908   -5.7425   16.4412 C   0  0  0  0  0  0  0  0  0  0  0  0
   10.5993   -4.8981   21.6068 C   0  0  0  0  0  0  0  0  0  0  0  0
   10.4258   -3.0106   23.0998 C   0  0  0  0  0  0  0  0  0  0  0  0
   10.2148   -3.4364   25.4200 C   0  0  0  0  0  0  0  0  0  0  0  0
    9.7853   -1.1840   24.4927 C   0  0  0  0  0  0  0  0  0  0  0  0
    5.0276   -8.5227   17.5352 C   0  0  0  0  0  0  0  0  0  0  0  0
    9.8187   -2.0895   25.5800 C   0  0  0  0  0  0  0  0  0  0  0  0
    5.6473   -8.7216   15.3158 C   0  0  0  0  0  0  0  0  0  0  0  0
   10.7581   -3.1233   19.4720 N   0  0  0  0  0  0  0  0  0  0  0  0
    9.9571   -4.0573   16.8866 C   0  0  0  0  0  0  0  0  0  0  0  0
    7.6213   -6.5618   16.0087 C   0  0  0  0  0  0  0  0  0  0  0  0
   10.8583   -2.6527   20.7222 C   0  0  0  0  0  0  0  0  0  0  0  0
   10.6412   -3.5089   21.7936 C   0  0  0  0  0  0  0  0  0  0  0  0
   10.4972   -3.8968   24.1589 C   0  0  0  0  0  0  0  0  0  0  0  0
    5.9260   -8.2736   16.5517 C   0  0  0  0  0  0  0  0  0  0  0  0
    3.8816   -9.1166   17.2493 C   0  0  0  0  0  0  0  0  0  0  0  0
   10.1297   -1.6575   23.2324 C   0  0  0  0  0  0  0  0  0  0  0  0
    9.4684   -1.6929   26.7263 F   0  0  0  0  0  0  0  0  0  0  0  0
    7.7963   -7.7906   17.9837 C   0  0  0  0  0  0  0  0  0  0  0  0
   10.5884   -3.0725   16.7902 O   0  0  0  0  0  0  0  0  0  0  0  0
   10.4323   -5.3494   20.3516 C   0  0  0  0  0  0  0  0  0  0  0  0
    7.1156   -7.5454   16.8218 C   0  0  0  0  0  0  0  0  0  0  0  0
   10.3885   -4.4388   19.2773 C   0  0  0  0  0  0  0  0  0  0  0  0
    4.5160   -9.3822   15.0841 C   0  0  0  0  0  0  0  0  0  0  0  0
  1  3  4  0
  1 24  4  0
  2  6  4  0
  2 15  4  0
  3  5  4  0
  3  6  4  0
  4 21  4  0
  4 29  4  0
  5 15  4  0
  5 28  1  0
  6 16  4  0
  7 18  4  0
  7 26  4  0
  8 18  1  0
  8 19  4  0
  8 22  4  0
  9 12  4  0
  9 19  4  0
 10 12  4  0
 10 22  4  0
 11 20  4  0
 11 21  4  0
 12 23  1  0
 13 20  4  0
 13 29  4  0
 14 17  4  0
 14 28  4  0
 15 25  2  0
 16 27  4  0
 17 18  4  0
 20 27  1  0
 24 27  4  0
 26 28  4  0
M  END
$$$$

 Created by Python create_sdf_string function

 29 33  0  0  0  0  0  0  0  0999 V2000
    8.8270   -7.0288   18.4251 C   0  0  0  0  0  0  0  0  0  0  0  0
    9.1576   -4.6236   15.8860 O   0  0  0  0  0  0  0  0  0  0  0  0
    9.1509   -5.9108   17.7177 C   0  0  0  0  0  0  0  0  0  0  0  0
    3.6373   -9.5349   16.0582 N   0  0  0  0  0  0  0  0  0  0  0  0
    9.9275   -4.8001   18.0438 N   0  0  0  0  0  0  0  0  0  0  0  0
    8.5908   -5.7425   16.4412 C   0  0  0  0  0  0  0  0  0  0  0  0
   10.5993   -4.8981   21.6068 C   0  0  0  0  0  0  0  0  0  0  0  0
   10.4258   -3.0106   23.0998 C   0  0  0  0  0  0  0  0  0  0  0  0
   10.2148   -3.4364   25.4200 C   0  0  0  0  0  0  0  0  0  0  0  0
    9.7853   -1.1840   24.4927 C   0  0  0  0  0  0  0  0  0  0  0  0
    5.0276   -8.5227   17.5352 C   0  0  0  0  0  0  0  0  0  0  0  0
    9.8187   -2.0895   25.5800 C   0  0  0  0  0  0  0  0  0  0  0  0
    5.6473   -8.7216   15.3158 C   0  0  0  0  0  0  0  0  0  0  0  0
   10.7581   -3.1233   19.4720 N   0  0  0  0  0  0  0  0  0  0  0  0
    9.9571   -4.0573   16.8866 C   0  0  0  0  0  0  0  0  0  0  0  0
    7.6213   -6.5618   16.0087 C   0  0  0  0  0  0  0  0  0  0  0  0
   10.8583   -2.6527   20.7222 C   0  0  0  0  0  0  0  0  0  0  0  0
   10.6412   -3.5089   21.7936 C   0  0  0  0  0  0  0  0  0  0  0  0
   10.4972   -3.8968   24.1589 C   0  0  0  0  0  0  0  0  0  0  0  0
    5.9260   -8.2736   16.5517 C   0  0  0  0  0  0  0  0  0  0  0  0
    3.8816   -9.1166   17.2493 C   0  0  0  0  0  0  0  0  0  0  0  0
   10.1297   -1.6575   23.2324 C   0  0  0  0  0  0  0  0  0  0  0  0
    9.4684   -1.6929   26.7263 F   0  0  0  0  0  0  0  0  0  0  0  0
    7.7963   -7.7906   17.9837 C   0  0  0  0  0  0  0  0  0  0  0  0
   10.5884   -3.0725   16.7902 O   0  0  0  0  0  0  0  0  0  0  0  0
   10.4323   -5.3494   20.3516 C   0  0  0  0  0  0  0  0  0  0  0  0
    7.1156   -7.5454   16.8218 C   0  0  0  0  0  0  0  0  0  0  0  0
   10.3885   -4.4388   19.2773 C   0  0  0  0  0  0  0  0  0  0  0  0
    4.5160   -9.3822   15.0841 C   0  0  0  0  0  0  0  0  0  0  0  0
  1  3  4  0
  1 24  4  0
  2  6  4  0
  2 15  4  0
  3  5  4  0
  3  6  4  0
  4 21  4  0
  4 29  4  0
  5 15  4  0
  5 28  1  0
  6 16  4  0
  7 18  4  0
  7 26  4  0
  8 18  1  0
  8 19  4  0
  8 22  4  0
  9 12  4  0
  9 19  4  0
 10 12  4  0
 10 22  4  0
 11 20  4  0
 11 21  4  0
 12 23  1  0
 13 20  4  0
 13 29  4  0
 14 17  4  0
 14 28  4  0
 15 25  2  0
 16 27  4  0
 17 18  4  0
 20 27  1  0
 24 27  4  0
 26 28  4  0
M  END
$$$$

 Created by Python create_sdf_string function

 29 33  0  0  0  0  0  0  0  0999 V2000
    8.8270   -7.0288   18.4251 C   0  0  0  0  0  0  0  0  0  0  0  0
    9.1576   -4.6236   15.8860 O   0  0  0  0  0  0  0  0  0  0  0  0
    9.1509   -5.9108   17.7177 C   0  0  0  0  0  0  0  0  0  0  0  0
    3.6373   -9.5349   16.0582 N   0  0  0  0  0  0  0  0  0  0  0  0
    9.9275   -4.8001   18.0438 N   0  0  0  0  0  0  0  0  0  0  0  0
    8.5908   -5.7425   16.4412 C   0  0  0  0  0  0  0  0  0  0  0  0
   10.5993   -4.8981   21.6068 C   0  0  0  0  0  0  0  0  0  0  0  0
   10.4258   -3.0106   23.0998 C   0  0  0  0  0  0  0  0  0  0  0  0
   10.2148   -3.4364   25.4200 C   0  0  0  0  0  0  0  0  0  0  0  0
    9.7853   -1.1840   24.4927 C   0  0  0  0  0  0  0  0  0  0  0  0
    5.0276   -8.5227   17.5352 C   0  0  0  0  0  0  0  0  0  0  0  0
    9.8187   -2.0895   25.5800 C   0  0  0  0  0  0  0  0  0  0  0  0
    5.6473   -8.7216   15.3158 C   0  0  0  0  0  0  0  0  0  0  0  0
   10.7581   -3.1233   19.4720 N   0  0  0  0  0  0  0  0  0  0  0  0
    9.9571   -4.0573   16.8866 C   0  0  0  0  0  0  0  0  0  0  0  0
    7.6213   -6.5618   16.0087 C   0  0  0  0  0  0  0  0  0  0  0  0
   10.8583   -2.6527   20.7222 C   0  0  0  0  0  0  0  0  0  0  0  0
   10.6412   -3.5089   21.7936 C   0  0  0  0  0  0  0  0  0  0  0  0
   10.4972   -3.8968   24.1589 C   0  0  0  0  0  0  0  0  0  0  0  0
    5.9260   -8.2736   16.5517 C   0  0  0  0  0  0  0  0  0  0  0  0
    3.8816   -9.1166   17.2493 C   0  0  0  0  0  0  0  0  0  0  0  0
   10.1297   -1.6575   23.2324 C   0  0  0  0  0  0  0  0  0  0  0  0
    9.4684   -1.6929   26.7263 F   0  0  0  0  0  0  0  0  0  0  0  0
    7.7963   -7.7906   17.9837 C   0  0  0  0  0  0  0  0  0  0  0  0
   10.5884   -3.0725   16.7902 O   0  0  0  0  0  0  0  0  0  0  0  0
   10.4323   -5.3494   20.3516 C   0  0  0  0  0  0  0  0  0  0  0  0
    7.1156   -7.5454   16.8218 C   0  0  0  0  0  0  0  0  0  0  0  0
   10.3885   -4.4388   19.2773 C   0  0  0  0  0  0  0  0  0  0  0  0
    4.5160   -9.3822   15.0841 C   0  0  0  0  0  0  0  0  0  0  0  0
  1  3  4  0
  1 24  4  0
  2  6  4  0
  2 15  4  0
  3  5  4  0
  3  6  4  0
  4 21  4  0
  4 29  4  0
  5 15  4  0
  5 28  1  0
  6 16  4  0
  7 18  4  0
  7 26  4  0
  8 18  1  0
  8 19  4  0
  8 22  4  0
  9 12  4  0
  9 19  4  0
 10 12  4  0
 10 22  4  0
 11 20  4  0
 11 21  4  0
 12 23  1  0
 13 20  4  0
 13 29  4  0
 14 17  4  0
 14 28  4  0
 15 25  2  0
 16 27  4  0
 17 18  4  0
 20 27  1  0
 24 27  4  0
 26 28  4  0
M  END
$$$$

 Created by Python create_sdf_string function

 29 33  0  0  0  0  0  0  0  0999 V2000
    8.8270   -7.0288   18.4251 C   0  0  0  0  0  0  0  0  0  0  0  0
    9.1576   -4.6236   15.8860 O   0  0  0  0  0  0  0  0  0  0  0  0
    9.1509   -5.9108   17.7177 C   0  0  0  0  0  0  0  0  0  0  0  0
    3.6373   -9.5349   16.0582 N   0  0  0  0  0  0  0  0  0  0  0  0
    9.9275   -4.8001   18.0438 N   0  0  0  0  0  0  0  0  0  0  0  0
    8.5908   -5.7425   16.4412 C   0  0  0  0  0  0  0  0  0  0  0  0
   10.5993   -4.8981   21.6068 C   0  0  0  0  0  0  0  0  0  0  0  0
   10.4258   -3.0106   23.0998 C   0  0  0  0  0  0  0  0  0  0  0  0
   10.2148   -3.4364   25.4200 C   0  0  0  0  0  0  0  0  0  0  0  0
    9.7853   -1.1840   24.4927 C   0  0  0  0  0  0  0  0  0  0  0  0
    5.0276   -8.5227   17.5352 C   0  0  0  0  0  0  0  0  0  0  0  0
    9.8187   -2.0895   25.5800 C   0  0  0  0  0  0  0  0  0  0  0  0
    5.6473   -8.7216   15.3158 C   0  0  0  0  0  0  0  0  0  0  0  0
   10.7581   -3.1233   19.4720 N   0  0  0  0  0  0  0  0  0  0  0  0
    9.9571   -4.0573   16.8866 C   0  0  0  0  0  0  0  0  0  0  0  0
    7.6213   -6.5618   16.0087 C   0  0  0  0  0  0  0  0  0  0  0  0
   10.8583   -2.6527   20.7222 C   0  0  0  0  0  0  0  0  0  0  0  0
   10.6412   -3.5089   21.7936 C   0  0  0  0  0  0  0  0  0  0  0  0
   10.4972   -3.8968   24.1589 C   0  0  0  0  0  0  0  0  0  0  0  0
    5.9260   -8.2736   16.5517 C   0  0  0  0  0  0  0  0  0  0  0  0
    3.8816   -9.1166   17.2493 C   0  0  0  0  0  0  0  0  0  0  0  0
   10.1297   -1.6575   23.2324 C   0  0  0  0  0  0  0  0  0  0  0  0
    9.4684   -1.6929   26.7263 F   0  0  0  0  0  0  0  0  0  0  0  0
    7.7963   -7.7906   17.9837 C   0  0  0  0  0  0  0  0  0  0  0  0
   10.5884   -3.0725   16.7902 O   0  0  0  0  0  0  0  0  0  0  0  0
   10.4323   -5.3494   20.3516 C   0  0  0  0  0  0  0  0  0  0  0  0
    7.1156   -7.5454   16.8218 C   0  0  0  0  0  0  0  0  0  0  0  0
   10.3885   -4.4388   19.2773 C   0  0  0  0  0  0  0  0  0  0  0  0
    4.5160   -9.3822   15.0841 C   0  0  0  0  0  0  0  0  0  0  0  0
  1  3  4  0
  1 24  4  0
  2  6  4  0
  2 15  4  0
  3  5  4  0
  3  6  4  0
  4 21  4  0
  4 29  4  0
  5 15  4  0
  5 28  1  0
  6 16  4  0
  7 18  4  0
  7 26  4  0
  8 18  1  0
  8 19  4  0
  8 22  4  0
  9 12  4  0
  9 19  4  0
 10 12  4  0
 10 22  4  0
 11 20  4  0
 11 21  4  0
 12 23  1  0
 13 20  4  0
 13 29  4  0
 14 17  4  0
 14 28  4  0
 15 25  2  0
 16 27  4  0
 17 18  4  0
 20 27  1  0
 24 27  4  0
 26 28  4  0
M  END
$$$$

 Created by Python create_sdf_string function

 29 33  0  0  0  0  0  0  0  0999 V2000
    8.8270   -7.0288   18.4251 C   0  0  0  0  0  0  0  0  0  0  0  0
    9.1576   -4.6236   15.8860 O   0  0  0  0  0  0  0  0  0  0  0  0
    9.1509   -5.9108   17.7177 C   0  0  0  0  0  0  0  0  0  0  0  0
    3.6373   -9.5349   16.0582 N   0  0  0  0  0  0  0  0  0  0  0  0
    9.9275   -4.8001   18.0438 N   0  0  0  0  0  0  0  0  0  0  0  0
    8.5908   -5.7425   16.4412 C   0  0  0  0  0  0  0  0  0  0  0  0
   10.5993   -4.8981   21.6068 C   0  0  0  0  0  0  0  0  0  0  0  0
   10.4258   -3.0106   23.0998 C   0  0  0  0  0  0  0  0  0  0  0  0
   10.2148   -3.4364   25.4200 C   0  0  0  0  0  0  0  0  0  0  0  0
    9.7853   -1.1840   24.4927 C   0  0  0  0  0  0  0  0  0  0  0  0
    5.0276   -8.5227   17.5352 C   0  0  0  0  0  0  0  0  0  0  0  0
    9.8187   -2.0895   25.5800 C   0  0  0  0  0  0  0  0  0  0  0  0
    5.6473   -8.7216   15.3158 C   0  0  0  0  0  0  0  0  0  0  0  0
   10.7581   -3.1233   19.4720 N   0  0  0  0  0  0  0  0  0  0  0  0
    9.9571   -4.0573   16.8866 C   0  0  0  0  0  0  0  0  0  0  0  0
    7.6213   -6.5618   16.0087 C   0  0  0  0  0  0  0  0  0  0  0  0
   10.8583   -2.6527   20.7222 C   0  0  0  0  0  0  0  0  0  0  0  0
   10.6412   -3.5089   21.7936 C   0  0  0  0  0  0  0  0  0  0  0  0
   10.4972   -3.8968   24.1589 C   0  0  0  0  0  0  0  0  0  0  0  0
    5.9260   -8.2736   16.5517 C   0  0  0  0  0  0  0  0  0  0  0  0
    3.8816   -9.1166   17.2493 C   0  0  0  0  0  0  0  0  0  0  0  0
   10.1297   -1.6575   23.2324 C   0  0  0  0  0  0  0  0  0  0  0  0
    9.4684   -1.6929   26.7263 F   0  0  0  0  0  0  0  0  0  0  0  0
    7.7963   -7.7906   17.9837 C   0  0  0  0  0  0  0  0  0  0  0  0
   10.5884   -3.0725   16.7902 O   0  0  0  0  0  0  0  0  0  0  0  0
   10.4323   -5.3494   20.3516 C   0  0  0  0  0  0  0  0  0  0  0  0
    7.1156   -7.5454   16.8218 C   0  0  0  0  0  0  0  0  0  0  0  0
   10.3885   -4.4388   19.2773 C   0  0  0  0  0  0  0  0  0  0  0  0
    4.5160   -9.3822   15.0841 C   0  0  0  0  0  0  0  0  0  0  0  0
  1  3  4  0
  1 24  4  0
  2  6  4  0
  2 15  4  0
  3  5  4  0
  3  6  4  0
  4 21  4  0
  4 29  4  0
  5 15  4  0
  5 28  1  0
  6 16  4  0
  7 18  4  0
  7 26  4  0
  8 18  1  0
  8 19  4  0
  8 22  4  0
  9 12  4  0
  9 19  4  0
 10 12  4  0
 10 22  4  0
 11 20  4  0
 11 21  4  0
 12 23  1  0
 13 20  4  0
 13 29  4  0
 14 17  4  0
 14 28  4  0
 15 25  2  0
 16 27  4  0
 17 18  4  0
 20 27  1  0
 24 27  4  0
 26 28  4  0
M  END
$$$$

 Created by Python create_sdf_string function

 29 33  0  0  0  0  0  0  0  0999 V2000
    8.8270   -7.0288   18.4251 C   0  0  0  0  0  0  0  0  0  0  0  0
    9.1576   -4.6236   15.8860 O   0  0  0  0  0  0  0  0  0  0  0  0
    9.1509   -5.9108   17.7177 C   0  0  0  0  0  0  0  0  0  0  0  0
    3.6373   -9.5349   16.0582 N   0  0  0  0  0  0  0  0  0  0  0  0
    9.9275   -4.8001   18.0438 N   0  0  0  0  0  0  0  0  0  0  0  0
    8.5908   -5.7425   16.4412 C   0  0  0  0  0  0  0  0  0  0  0  0
   10.5993   -4.8981   21.6068 C   0  0  0  0  0  0  0  0  0  0  0  0
   10.4258   -3.0106   23.0998 C   0  0  0  0  0  0  0  0  0  0  0  0
   10.2148   -3.4364   25.4200 C   0  0  0  0  0  0  0  0  0  0  0  0
    9.7853   -1.1840   24.4927 C   0  0  0  0  0  0  0  0  0  0  0  0
    5.0276   -8.5227   17.5352 C   0  0  0  0  0  0  0  0  0  0  0  0
    9.8187   -2.0895   25.5800 C   0  0  0  0  0  0  0  0  0  0  0  0
    5.6473   -8.7216   15.3158 C   0  0  0  0  0  0  0  0  0  0  0  0
   10.7581   -3.1233   19.4720 N   0  0  0  0  0  0  0  0  0  0  0  0
    9.9571   -4.0573   16.8866 C   0  0  0  0  0  0  0  0  0  0  0  0
    7.6213   -6.5618   16.0087 C   0  0  0  0  0  0  0  0  0  0  0  0
   10.8583   -2.6527   20.7222 C   0  0  0  0  0  0  0  0  0  0  0  0
   10.6412   -3.5089   21.7936 C   0  0  0  0  0  0  0  0  0  0  0  0
   10.4972   -3.8968   24.1589 C   0  0  0  0  0  0  0  0  0  0  0  0
    5.9260   -8.2736   16.5517 C   0  0  0  0  0  0  0  0  0  0  0  0
    3.8816   -9.1166   17.2493 C   0  0  0  0  0  0  0  0  0  0  0  0
   10.1297   -1.6575   23.2324 C   0  0  0  0  0  0  0  0  0  0  0  0
    9.4684   -1.6929   26.7263 F   0  0  0  0  0  0  0  0  0  0  0  0
    7.7963   -7.7906   17.9837 C   0  0  0  0  0  0  0  0  0  0  0  0
   10.5884   -3.0725   16.7902 O   0  0  0  0  0  0  0  0  0  0  0  0
   10.4323   -5.3494   20.3516 C   0  0  0  0  0  0  0  0  0  0  0  0
    7.1156   -7.5454   16.8218 C   0  0  0  0  0  0  0  0  0  0  0  0
   10.3885   -4.4388   19.2773 C   0  0  0  0  0  0  0  0  0  0  0  0
    4.5160   -9.3822   15.0841 C   0  0  0  0  0  0  0  0  0  0  0  0
  1  3  4  0
  1 24  4  0
  2  6  4  0
  2 15  4  0
  3  5  4  0
  3  6  4  0
  4 21  4  0
  4 29  4  0
  5 15  4  0
  5 28  1  0
  6 16  4  0
  7 18  4  0
  7 26  4  0
  8 18  1  0
  8 19  4  0
  8 22  4  0
  9 12  4  0
  9 19  4  0
 10 12  4  0
 10 22  4  0
 11 20  4  0
 11 21  4  0
 12 23  1  0
 13 20  4  0
 13 29  4  0
 14 17  4  0
 14 28  4  0
 15 25  2  0
 16 27  4  0
 17 18  4  0
 20 27  1  0
 24 27  4  0
 26 28  4  0
M  END
$$$$

 Created by Python create_sdf_string function

 29 33  0  0  0  0  0  0  0  0999 V2000
    8.8270   -7.0288   18.4251 C   0  0  0  0  0  0  0  0  0  0  0  0
    9.1576   -4.6236   15.8860 O   0  0  0  0  0  0  0  0  0  0  0  0
    9.1509   -5.9108   17.7177 C   0  0  0  0  0  0  0  0  0  0  0  0
    3.6373   -9.5349   16.0582 N   0  0  0  0  0  0  0  0  0  0  0  0
    9.9275   -4.8001   18.0438 N   0  0  0  0  0  0  0  0  0  0  0  0
    8.5908   -5.7425   16.4412 C   0  0  0  0  0  0  0  0  0  0  0  0
   10.5993   -4.8981   21.6068 C   0  0  0  0  0  0  0  0  0  0  0  0
   10.4258   -3.0106   23.0998 C   0  0  0  0  0  0  0  0  0  0  0  0
   10.2148   -3.4364   25.4200 C   0  0  0  0  0  0  0  0  0  0  0  0
    9.7853   -1.1840   24.4927 C   0  0  0  0  0  0  0  0  0  0  0  0
    5.0276   -8.5227   17.5352 C   0  0  0  0  0  0  0  0  0  0  0  0
    9.8187   -2.0895   25.5800 C   0  0  0  0  0  0  0  0  0  0  0  0
    5.6473   -8.7216   15.3158 C   0  0  0  0  0  0  0  0  0  0  0  0
   10.7581   -3.1233   19.4720 N   0  0  0  0  0  0  0  0  0  0  0  0
    9.9571   -4.0573   16.8866 C   0  0  0  0  0  0  0  0  0  0  0  0
    7.6213   -6.5618   16.0087 C   0  0  0  0  0  0  0  0  0  0  0  0
   10.8583   -2.6527   20.7222 C   0  0  0  0  0  0  0  0  0  0  0  0
   10.6412   -3.5089   21.7936 C   0  0  0  0  0  0  0  0  0  0  0  0
   10.4972   -3.8968   24.1589 C   0  0  0  0  0  0  0  0  0  0  0  0
    5.9260   -8.2736   16.5517 C   0  0  0  0  0  0  0  0  0  0  0  0
    3.8816   -9.1166   17.2493 C   0  0  0  0  0  0  0  0  0  0  0  0
   10.1297   -1.6575   23.2324 C   0  0  0  0  0  0  0  0  0  0  0  0
    9.4684   -1.6929   26.7263 F   0  0  0  0  0  0  0  0  0  0  0  0
    7.7963   -7.7906   17.9837 C   0  0  0  0  0  0  0  0  0  0  0  0
   10.5884   -3.0725   16.7902 O   0  0  0  0  0  0  0  0  0  0  0  0
   10.4323   -5.3494   20.3516 C   0  0  0  0  0  0  0  0  0  0  0  0
    7.1156   -7.5454   16.8218 C   0  0  0  0  0  0  0  0  0  0  0  0
   10.3885   -4.4388   19.2773 C   0  0  0  0  0  0  0  0  0  0  0  0
    4.5160   -9.3822   15.0841 C   0  0  0  0  0  0  0  0  0  0  0  0
  1  3  4  0
  1 24  4  0
  2  6  4  0
  2 15  4  0
  3  5  4  0
  3  6  4  0
  4 21  4  0
  4 29  4  0
  5 15  4  0
  5 28  1  0
  6 16  4  0
  7 18  4  0
  7 26  4  0
  8 18  1  0
  8 19  4  0
  8 22  4  0
  9 12  4  0
  9 19  4  0
 10 12  4  0
 10 22  4  0
 11 20  4  0
 11 21  4  0
 12 23  1  0
 13 20  4  0
 13 29  4  0
 14 17  4  0
 14 28  4  0
 15 25  2  0
 16 27  4  0
 17 18  4  0
 20 27  1  0
 24 27  4  0
 26 28  4  0
M  END
$$$$

 Created by Python create_sdf_string function

 29 33  0  0  0  0  0  0  0  0999 V2000
    8.8270   -7.0288   18.4251 C   0  0  0  0  0  0  0  0  0  0  0  0
    9.1576   -4.6236   15.8860 O   0  0  0  0  0  0  0  0  0  0  0  0
    9.1509   -5.9108   17.7177 C   0  0  0  0  0  0  0  0  0  0  0  0
    3.6373   -9.5349   16.0582 N   0  0  0  0  0  0  0  0  0  0  0  0
    9.9275   -4.8001   18.0438 N   0  0  0  0  0  0  0  0  0  0  0  0
    8.5908   -5.7425   16.4412 C   0  0  0  0  0  0  0  0  0  0  0  0
   10.5993   -4.8981   21.6068 C   0  0  0  0  0  0  0  0  0  0  0  0
   10.4258   -3.0106   23.0998 C   0  0  0  0  0  0  0  0  0  0  0  0
   10.2148   -3.4364   25.4200 C   0  0  0  0  0  0  0  0  0  0  0  0
    9.7853   -1.1840   24.4927 C   0  0  0  0  0  0  0  0  0  0  0  0
    5.0276   -8.5227   17.5352 C   0  0  0  0  0  0  0  0  0  0  0  0
    9.8187   -2.0895   25.5800 C   0  0  0  0  0  0  0  0  0  0  0  0
    5.6473   -8.7216   15.3158 C   0  0  0  0  0  0  0  0  0  0  0  0
   10.7581   -3.1233   19.4720 N   0  0  0  0  0  0  0  0  0  0  0  0
    9.9571   -4.0573   16.8866 C   0  0  0  0  0  0  0  0  0  0  0  0
    7.6213   -6.5618   16.0087 C   0  0  0  0  0  0  0  0  0  0  0  0
   10.8583   -2.6527   20.7222 C   0  0  0  0  0  0  0  0  0  0  0  0
   10.6412   -3.5089   21.7936 C   0  0  0  0  0  0  0  0  0  0  0  0
   10.4972   -3.8968   24.1589 C   0  0  0  0  0  0  0  0  0  0  0  0
    5.9260   -8.2736   16.5517 C   0  0  0  0  0  0  0  0  0  0  0  0
    3.8816   -9.1166   17.2493 C   0  0  0  0  0  0  0  0  0  0  0  0
   10.1297   -1.6575   23.2324 C   0  0  0  0  0  0  0  0  0  0  0  0
    9.4684   -1.6929   26.7263 F   0  0  0  0  0  0  0  0  0  0  0  0
    7.7963   -7.7906   17.9837 C   0  0  0  0  0  0  0  0  0  0  0  0
   10.5884   -3.0725   16.7902 O   0  0  0  0  0  0  0  0  0  0  0  0
   10.4323   -5.3494   20.3516 C   0  0  0  0  0  0  0  0  0  0  0  0
    7.1156   -7.5454   16.8218 C   0  0  0  0  0  0  0  0  0  0  0  0
   10.3885   -4.4388   19.2773 C   0  0  0  0  0  0  0  0  0  0  0  0
    4.5160   -9.3822   15.0841 C   0  0  0  0  0  0  0  0  0  0  0  0
  1  3  4  0
  1 24  4  0
  2  6  4  0
  2 15  4  0
  3  5  4  0
  3  6  4  0
  4 21  4  0
  4 29  4  0
  5 15  4  0
  5 28  1  0
  6 16  4  0
  7 18  4  0
  7 26  4  0
  8 18  1  0
  8 19  4  0
  8 22  4  0
  9 12  4  0
  9 19  4  0
 10 12  4  0
 10 22  4  0
 11 20  4  0
 11 21  4  0
 12 23  1  0
 13 20  4  0
 13 29  4  0
 14 17  4  0
 14 28  4  0
 15 25  2  0
 16 27  4  0
 17 18  4  0
 20 27  1  0
 24 27  4  0
 26 28  4  0
M  END
$$$$

 Created by Python create_sdf_string function

 29 33  0  0  0  0  0  0  0  0999 V2000
    8.8270   -7.0288   18.4251 C   0  0  0  0  0  0  0  0  0  0  0  0
    9.1576   -4.6236   15.8860 O   0  0  0  0  0  0  0  0  0  0  0  0
    9.1509   -5.9108   17.7177 C   0  0  0  0  0  0  0  0  0  0  0  0
    3.6373   -9.5349   16.0582 N   0  0  0  0  0  0  0  0  0  0  0  0
    9.9275   -4.8001   18.0438 N   0  0  0  0  0  0  0  0  0  0  0  0
    8.5908   -5.7425   16.4412 C   0  0  0  0  0  0  0  0  0  0  0  0
   10.5993   -4.8981   21.6068 C   0  0  0  0  0  0  0  0  0  0  0  0
   10.4258   -3.0106   23.0998 C   0  0  0  0  0  0  0  0  0  0  0  0
   10.2148   -3.4364   25.4200 C   0  0  0  0  0  0  0  0  0  0  0  0
    9.7853   -1.1840   24.4927 C   0  0  0  0  0  0  0  0  0  0  0  0
    5.0276   -8.5227   17.5352 C   0  0  0  0  0  0  0  0  0  0  0  0
    9.8187   -2.0895   25.5800 C   0  0  0  0  0  0  0  0  0  0  0  0
    5.6473   -8.7216   15.3158 C   0  0  0  0  0  0  0  0  0  0  0  0
   10.7581   -3.1233   19.4720 N   0  0  0  0  0  0  0  0  0  0  0  0
    9.9571   -4.0573   16.8866 C   0  0  0  0  0  0  0  0  0  0  0  0
    7.6213   -6.5618   16.0087 C   0  0  0  0  0  0  0  0  0  0  0  0
   10.8583   -2.6527   20.7222 C   0  0  0  0  0  0  0  0  0  0  0  0
   10.6412   -3.5089   21.7936 C   0  0  0  0  0  0  0  0  0  0  0  0
   10.4972   -3.8968   24.1589 C   0  0  0  0  0  0  0  0  0  0  0  0
    5.9260   -8.2736   16.5517 C   0  0  0  0  0  0  0  0  0  0  0  0
    3.8816   -9.1166   17.2493 C   0  0  0  0  0  0  0  0  0  0  0  0
   10.1297   -1.6575   23.2324 C   0  0  0  0  0  0  0  0  0  0  0  0
    9.4684   -1.6929   26.7263 F   0  0  0  0  0  0  0  0  0  0  0  0
    7.7963   -7.7906   17.9837 C   0  0  0  0  0  0  0  0  0  0  0  0
   10.5884   -3.0725   16.7902 O   0  0  0  0  0  0  0  0  0  0  0  0
   10.4323   -5.3494   20.3516 C   0  0  0  0  0  0  0  0  0  0  0  0
    7.1156   -7.5454   16.8218 C   0  0  0  0  0  0  0  0  0  0  0  0
   10.3885   -4.4388   19.2773 C   0  0  0  0  0  0  0  0  0  0  0  0
    4.5160   -9.3822   15.0841 C   0  0  0  0  0  0  0  0  0  0  0  0
  1  3  4  0
  1 24  4  0
  2  6  4  0
  2 15  4  0
  3  5  4  0
  3  6  4  0
  4 21  4  0
  4 29  4  0
  5 15  4  0
  5 28  1  0
  6 16  4  0
  7 18  4  0
  7 26  4  0
  8 18  1  0
  8 19  4  0
  8 22  4  0
  9 12  4  0
  9 19  4  0
 10 12  4  0
 10 22  4  0
 11 20  4  0
 11 21  4  0
 12 23  1  0
 13 20  4  0
 13 29  4  0
 14 17  4  0
 14 28  4  0
 15 25  2  0
 16 27  4  0
 17 18  4  0
 20 27  1  0
 24 27  4  0
 26 28  4  0
M  END
$$$$

 Created by Python create_sdf_string function

 29 33  0  0  0  0  0  0  0  0999 V2000
    8.8270   -7.0288   18.4251 C   0  0  0  0  0  0  0  0  0  0  0  0
    9.1576   -4.6236   15.8860 O   0  0  0  0  0  0  0  0  0  0  0  0
    9.1509   -5.9108   17.7177 C   0  0  0  0  0  0  0  0  0  0  0  0
    3.6373   -9.5349   16.0582 N   0  0  0  0  0  0  0  0  0  0  0  0
    9.9275   -4.8001   18.0438 N   0  0  0  0  0  0  0  0  0  0  0  0
    8.5908   -5.7425   16.4412 C   0  0  0  0  0  0  0  0  0  0  0  0
   10.5993   -4.8981   21.6068 C   0  0  0  0  0  0  0  0  0  0  0  0
   10.4258   -3.0106   23.0998 C   0  0  0  0  0  0  0  0  0  0  0  0
   10.2148   -3.4364   25.4200 C   0  0  0  0  0  0  0  0  0  0  0  0
    9.7853   -1.1840   24.4927 C   0  0  0  0  0  0  0  0  0  0  0  0
    5.0276   -8.5227   17.5352 C   0  0  0  0  0  0  0  0  0  0  0  0
    9.8187   -2.0895   25.5800 C   0  0  0  0  0  0  0  0  0  0  0  0
    5.6473   -8.7216   15.3158 C   0  0  0  0  0  0  0  0  0  0  0  0
   10.7581   -3.1233   19.4720 N   0  0  0  0  0  0  0  0  0  0  0  0
    9.9571   -4.0573   16.8866 C   0  0  0  0  0  0  0  0  0  0  0  0
    7.6213   -6.5618   16.0087 C   0  0  0  0  0  0  0  0  0  0  0  0
   10.8583   -2.6527   20.7222 C   0  0  0  0  0  0  0  0  0  0  0  0
   10.6412   -3.5089   21.7936 C   0  0  0  0  0  0  0  0  0  0  0  0
   10.4972   -3.8968   24.1589 C   0  0  0  0  0  0  0  0  0  0  0  0
    5.9260   -8.2736   16.5517 C   0  0  0  0  0  0  0  0  0  0  0  0
    3.8816   -9.1166   17.2493 C   0  0  0  0  0  0  0  0  0  0  0  0
   10.1297   -1.6575   23.2324 C   0  0  0  0  0  0  0  0  0  0  0  0
    9.4684   -1.6929   26.7263 F   0  0  0  0  0  0  0  0  0  0  0  0
    7.7963   -7.7906   17.9837 C   0  0  0  0  0  0  0  0  0  0  0  0
   10.5884   -3.0725   16.7902 O   0  0  0  0  0  0  0  0  0  0  0  0
   10.4323   -5.3494   20.3516 C   0  0  0  0  0  0  0  0  0  0  0  0
    7.1156   -7.5454   16.8218 C   0  0  0  0  0  0  0  0  0  0  0  0
   10.3885   -4.4388   19.2773 C   0  0  0  0  0  0  0  0  0  0  0  0
    4.5160   -9.3822   15.0841 C   0  0  0  0  0  0  0  0  0  0  0  0
  1  3  4  0
  1 24  4  0
  2  6  4  0
  2 15  4  0
  3  5  4  0
  3  6  4  0
  4 21  4  0
  4 29  4  0
  5 15  4  0
  5 28  1  0
  6 16  4  0
  7 18  4  0
  7 26  4  0
  8 18  1  0
  8 19  4  0
  8 22  4  0
  9 12  4  0
  9 19  4  0
 10 12  4  0
 10 22  4  0
 11 20  4  0
 11 21  4  0
 12 23  1  0
 13 20  4  0
 13 29  4  0
 14 17  4  0
 14 28  4  0
 15 25  2  0
 16 27  4  0
 17 18  4  0
 20 27  1  0
 24 27  4  0
 26 28  4  0
M  END
$$$$

 Created by Python create_sdf_string function

 29 33  0  0  0  0  0  0  0  0999 V2000
    8.8270   -7.0288   18.4251 C   0  0  0  0  0  0  0  0  0  0  0  0
    9.1576   -4.6236   15.8860 O   0  0  0  0  0  0  0  0  0  0  0  0
    9.1509   -5.9108   17.7177 C   0  0  0  0  0  0  0  0  0  0  0  0
    3.6373   -9.5349   16.0582 N   0  0  0  0  0  0  0  0  0  0  0  0
    9.9275   -4.8001   18.0438 N   0  0  0  0  0  0  0  0  0  0  0  0
    8.5908   -5.7425   16.4412 C   0  0  0  0  0  0  0  0  0  0  0  0
   10.5993   -4.8981   21.6068 C   0  0  0  0  0  0  0  0  0  0  0  0
   10.4258   -3.0106   23.0998 C   0  0  0  0  0  0  0  0  0  0  0  0
   10.2148   -3.4364   25.4200 C   0  0  0  0  0  0  0  0  0  0  0  0
    9.7853   -1.1840   24.4927 C   0  0  0  0  0  0  0  0  0  0  0  0
    5.0276   -8.5227   17.5352 C   0  0  0  0  0  0  0  0  0  0  0  0
    9.8187   -2.0895   25.5800 C   0  0  0  0  0  0  0  0  0  0  0  0
    5.6473   -8.7216   15.3158 C   0  0  0  0  0  0  0  0  0  0  0  0
   10.7581   -3.1233   19.4720 N   0  0  0  0  0  0  0  0  0  0  0  0
    9.9571   -4.0573   16.8866 C   0  0  0  0  0  0  0  0  0  0  0  0
    7.6213   -6.5618   16.0087 C   0  0  0  0  0  0  0  0  0  0  0  0
   10.8583   -2.6527   20.7222 C   0  0  0  0  0  0  0  0  0  0  0  0
   10.6412   -3.5089   21.7936 C   0  0  0  0  0  0  0  0  0  0  0  0
   10.4972   -3.8968   24.1589 C   0  0  0  0  0  0  0  0  0  0  0  0
    5.9260   -8.2736   16.5517 C   0  0  0  0  0  0  0  0  0  0  0  0
    3.8816   -9.1166   17.2493 C   0  0  0  0  0  0  0  0  0  0  0  0
   10.1297   -1.6575   23.2324 C   0  0  0  0  0  0  0  0  0  0  0  0
    9.4684   -1.6929   26.7263 F   0  0  0  0  0  0  0  0  0  0  0  0
    7.7963   -7.7906   17.9837 C   0  0  0  0  0  0  0  0  0  0  0  0
   10.5884   -3.0725   16.7902 O   0  0  0  0  0  0  0  0  0  0  0  0
   10.4323   -5.3494   20.3516 C   0  0  0  0  0  0  0  0  0  0  0  0
    7.1156   -7.5454   16.8218 C   0  0  0  0  0  0  0  0  0  0  0  0
   10.3885   -4.4388   19.2773 C   0  0  0  0  0  0  0  0  0  0  0  0
    4.5160   -9.3822   15.0841 C   0  0  0  0  0  0  0  0  0  0  0  0
  1  3  4  0
  1 24  4  0
  2  6  4  0
  2 15  4  0
  3  5  4  0
  3  6  4  0
  4 21  4  0
  4 29  4  0
  5 15  4  0
  5 28  1  0
  6 16  4  0
  7 18  4  0
  7 26  4  0
  8 18  1  0
  8 19  4  0
  8 22  4  0
  9 12  4  0
  9 19  4  0
 10 12  4  0
 10 22  4  0
 11 20  4  0
 11 21  4  0
 12 23  1  0
 13 20  4  0
 13 29  4  0
 14 17  4  0
 14 28  4  0
 15 25  2  0
 16 27  4  0
 17 18  4  0
 20 27  1  0
 24 27  4  0
 26 28  4  0
M  END
$$$$

 Created by Python create_sdf_string function

 29 33  0  0  0  0  0  0  0  0999 V2000
    8.8270   -7.0288   18.4251 C   0  0  0  0  0  0  0  0  0  0  0  0
    9.1576   -4.6236   15.8860 O   0  0  0  0  0  0  0  0  0  0  0  0
    9.1509   -5.9108   17.7177 C   0  0  0  0  0  0  0  0  0  0  0  0
    3.6373   -9.5349   16.0582 N   0  0  0  0  0  0  0  0  0  0  0  0
    9.9275   -4.8001   18.0438 N   0  0  0  0  0  0  0  0  0  0  0  0
    8.5908   -5.7425   16.4412 C   0  0  0  0  0  0  0  0  0  0  0  0
   10.5993   -4.8981   21.6068 C   0  0  0  0  0  0  0  0  0  0  0  0
   10.4258   -3.0106   23.0998 C   0  0  0  0  0  0  0  0  0  0  0  0
   10.2148   -3.4364   25.4200 C   0  0  0  0  0  0  0  0  0  0  0  0
    9.7853   -1.1840   24.4927 C   0  0  0  0  0  0  0  0  0  0  0  0
    5.0276   -8.5227   17.5352 C   0  0  0  0  0  0  0  0  0  0  0  0
    9.8187   -2.0895   25.5800 C   0  0  0  0  0  0  0  0  0  0  0  0
    5.6473   -8.7216   15.3158 C   0  0  0  0  0  0  0  0  0  0  0  0
   10.7581   -3.1233   19.4720 N   0  0  0  0  0  0  0  0  0  0  0  0
    9.9571   -4.0573   16.8866 C   0  0  0  0  0  0  0  0  0  0  0  0
    7.6213   -6.5618   16.0087 C   0  0  0  0  0  0  0  0  0  0  0  0
   10.8583   -2.6527   20.7222 C   0  0  0  0  0  0  0  0  0  0  0  0
   10.6412   -3.5089   21.7936 C   0  0  0  0  0  0  0  0  0  0  0  0
   10.4972   -3.8968   24.1589 C   0  0  0  0  0  0  0  0  0  0  0  0
    5.9260   -8.2736   16.5517 C   0  0  0  0  0  0  0  0  0  0  0  0
    3.8816   -9.1166   17.2493 C   0  0  0  0  0  0  0  0  0  0  0  0
   10.1297   -1.6575   23.2324 C   0  0  0  0  0  0  0  0  0  0  0  0
    9.4684   -1.6929   26.7263 F   0  0  0  0  0  0  0  0  0  0  0  0
    7.7963   -7.7906   17.9837 C   0  0  0  0  0  0  0  0  0  0  0  0
   10.5884   -3.0725   16.7902 O   0  0  0  0  0  0  0  0  0  0  0  0
   10.4323   -5.3494   20.3516 C   0  0  0  0  0  0  0  0  0  0  0  0
    7.1156   -7.5454   16.8218 C   0  0  0  0  0  0  0  0  0  0  0  0
   10.3885   -4.4388   19.2773 C   0  0  0  0  0  0  0  0  0  0  0  0
    4.5160   -9.3822   15.0841 C   0  0  0  0  0  0  0  0  0  0  0  0
  1  3  4  0
  1 24  4  0
  2  6  4  0
  2 15  4  0
  3  5  4  0
  3  6  4  0
  4 21  4  0
  4 29  4  0
  5 15  4  0
  5 28  1  0
  6 16  4  0
  7 18  4  0
  7 26  4  0
  8 18  1  0
  8 19  4  0
  8 22  4  0
  9 12  4  0
  9 19  4  0
 10 12  4  0
 10 22  4  0
 11 20  4  0
 11 21  4  0
 12 23  1  0
 13 20  4  0
 13 29  4  0
 14 17  4  0
 14 28  4  0
 15 25  2  0
 16 27  4  0
 17 18  4  0
 20 27  1  0
 24 27  4  0
 26 28  4  0
M  END
$$$$

 Created by Python create_sdf_string function

 29 33  0  0  0  0  0  0  0  0999 V2000
    8.8270   -7.0288   18.4251 C   0  0  0  0  0  0  0  0  0  0  0  0
    9.1576   -4.6236   15.8860 O   0  0  0  0  0  0  0  0  0  0  0  0
    9.1509   -5.9108   17.7177 C   0  0  0  0  0  0  0  0  0  0  0  0
    3.6373   -9.5349   16.0582 N   0  0  0  0  0  0  0  0  0  0  0  0
    9.9275   -4.8001   18.0438 N   0  0  0  0  0  0  0  0  0  0  0  0
    8.5908   -5.7425   16.4412 C   0  0  0  0  0  0  0  0  0  0  0  0
   10.5993   -4.8981   21.6068 C   0  0  0  0  0  0  0  0  0  0  0  0
   10.4258   -3.0106   23.0998 C   0  0  0  0  0  0  0  0  0  0  0  0
   10.2148   -3.4364   25.4200 C   0  0  0  0  0  0  0  0  0  0  0  0
    9.7853   -1.1840   24.4927 C   0  0  0  0  0  0  0  0  0  0  0  0
    5.0276   -8.5227   17.5352 C   0  0  0  0  0  0  0  0  0  0  0  0
    9.8187   -2.0895   25.5800 C   0  0  0  0  0  0  0  0  0  0  0  0
    5.6473   -8.7216   15.3158 C   0  0  0  0  0  0  0  0  0  0  0  0
   10.7581   -3.1233   19.4720 N   0  0  0  0  0  0  0  0  0  0  0  0
    9.9571   -4.0573   16.8866 C   0  0  0  0  0  0  0  0  0  0  0  0
    7.6213   -6.5618   16.0087 C   0  0  0  0  0  0  0  0  0  0  0  0
   10.8583   -2.6527   20.7222 C   0  0  0  0  0  0  0  0  0  0  0  0
   10.6412   -3.5089   21.7936 C   0  0  0  0  0  0  0  0  0  0  0  0
   10.4972   -3.8968   24.1589 C   0  0  0  0  0  0  0  0  0  0  0  0
    5.9260   -8.2736   16.5517 C   0  0  0  0  0  0  0  0  0  0  0  0
    3.8816   -9.1166   17.2493 C   0  0  0  0  0  0  0  0  0  0  0  0
   10.1297   -1.6575   23.2324 C   0  0  0  0  0  0  0  0  0  0  0  0
    9.4684   -1.6929   26.7263 F   0  0  0  0  0  0  0  0  0  0  0  0
    7.7963   -7.7906   17.9837 C   0  0  0  0  0  0  0  0  0  0  0  0
   10.5884   -3.0725   16.7902 O   0  0  0  0  0  0  0  0  0  0  0  0
   10.4323   -5.3494   20.3516 C   0  0  0  0  0  0  0  0  0  0  0  0
    7.1156   -7.5454   16.8218 C   0  0  0  0  0  0  0  0  0  0  0  0
   10.3885   -4.4388   19.2773 C   0  0  0  0  0  0  0  0  0  0  0  0
    4.5160   -9.3822   15.0841 C   0  0  0  0  0  0  0  0  0  0  0  0
  1  3  4  0
  1 24  4  0
  2  6  4  0
  2 15  4  0
  3  5  4  0
  3  6  4  0
  4 21  4  0
  4 29  4  0
  5 15  4  0
  5 28  1  0
  6 16  4  0
  7 18  4  0
  7 26  4  0
  8 18  1  0
  8 19  4  0
  8 22  4  0
  9 12  4  0
  9 19  4  0
 10 12  4  0
 10 22  4  0
 11 20  4  0
 11 21  4  0
 12 23  1  0
 13 20  4  0
 13 29  4  0
 14 17  4  0
 14 28  4  0
 15 25  2  0
 16 27  4  0
 17 18  4  0
 20 27  1  0
 24 27  4  0
 26 28  4  0
M  END
$$$$

 Created by Python create_sdf_string function

 29 33  0  0  0  0  0  0  0  0999 V2000
    8.8270   -7.0288   18.4251 C   0  0  0  0  0  0  0  0  0  0  0  0
    9.1576   -4.6236   15.8860 O   0  0  0  0  0  0  0  0  0  0  0  0
    9.1509   -5.9108   17.7177 C   0  0  0  0  0  0  0  0  0  0  0  0
    3.6373   -9.5349   16.0582 N   0  0  0  0  0  0  0  0  0  0  0  0
    9.9275   -4.8001   18.0438 N   0  0  0  0  0  0  0  0  0  0  0  0
    8.5908   -5.7425   16.4412 C   0  0  0  0  0  0  0  0  0  0  0  0
   10.5993   -4.8981   21.6068 C   0  0  0  0  0  0  0  0  0  0  0  0
   10.4258   -3.0106   23.0998 C   0  0  0  0  0  0  0  0  0  0  0  0
   10.2148   -3.4364   25.4200 C   0  0  0  0  0  0  0  0  0  0  0  0
    9.7853   -1.1840   24.4927 C   0  0  0  0  0  0  0  0  0  0  0  0
    5.0276   -8.5227   17.5352 C   0  0  0  0  0  0  0  0  0  0  0  0
    9.8187   -2.0895   25.5800 C   0  0  0  0  0  0  0  0  0  0  0  0
    5.6473   -8.7216   15.3158 C   0  0  0  0  0  0  0  0  0  0  0  0
   10.7581   -3.1233   19.4720 N   0  0  0  0  0  0  0  0  0  0  0  0
    9.9571   -4.0573   16.8866 C   0  0  0  0  0  0  0  0  0  0  0  0
    7.6213   -6.5618   16.0087 C   0  0  0  0  0  0  0  0  0  0  0  0
   10.8583   -2.6527   20.7222 C   0  0  0  0  0  0  0  0  0  0  0  0
   10.6412   -3.5089   21.7936 C   0  0  0  0  0  0  0  0  0  0  0  0
   10.4972   -3.8968   24.1589 C   0  0  0  0  0  0  0  0  0  0  0  0
    5.9260   -8.2736   16.5517 C   0  0  0  0  0  0  0  0  0  0  0  0
    3.8816   -9.1166   17.2493 C   0  0  0  0  0  0  0  0  0  0  0  0
   10.1297   -1.6575   23.2324 C   0  0  0  0  0  0  0  0  0  0  0  0
    9.4684   -1.6929   26.7263 F   0  0  0  0  0  0  0  0  0  0  0  0
    7.7963   -7.7906   17.9837 C   0  0  0  0  0  0  0  0  0  0  0  0
   10.5884   -3.0725   16.7902 O   0  0  0  0  0  0  0  0  0  0  0  0
   10.4323   -5.3494   20.3516 C   0  0  0  0  0  0  0  0  0  0  0  0
    7.1156   -7.5454   16.8218 C   0  0  0  0  0  0  0  0  0  0  0  0
   10.3885   -4.4388   19.2773 C   0  0  0  0  0  0  0  0  0  0  0  0
    4.5160   -9.3822   15.0841 C   0  0  0  0  0  0  0  0  0  0  0  0
  1  3  4  0
  1 24  4  0
  2  6  4  0
  2 15  4  0
  3  5  4  0
  3  6  4  0
  4 21  4  0
  4 29  4  0
  5 15  4  0
  5 28  1  0
  6 16  4  0
  7 18  4  0
  7 26  4  0
  8 18  1  0
  8 19  4  0
  8 22  4  0
  9 12  4  0
  9 19  4  0
 10 12  4  0
 10 22  4  0
 11 20  4  0
 11 21  4  0
 12 23  1  0
 13 20  4  0
 13 29  4  0
 14 17  4  0
 14 28  4  0
 15 25  2  0
 16 27  4  0
 17 18  4  0
 20 27  1  0
 24 27  4  0
 26 28  4  0
M  END
$$$$

 Created by Python create_sdf_string function

 29 33  0  0  0  0  0  0  0  0999 V2000
    8.8270   -7.0288   18.4251 C   0  0  0  0  0  0  0  0  0  0  0  0
    9.1576   -4.6236   15.8860 O   0  0  0  0  0  0  0  0  0  0  0  0
    9.1509   -5.9108   17.7177 C   0  0  0  0  0  0  0  0  0  0  0  0
    3.6373   -9.5349   16.0582 N   0  0  0  0  0  0  0  0  0  0  0  0
    9.9275   -4.8001   18.0438 N   0  0  0  0  0  0  0  0  0  0  0  0
    8.5908   -5.7425   16.4412 C   0  0  0  0  0  0  0  0  0  0  0  0
   10.5993   -4.8981   21.6068 C   0  0  0  0  0  0  0  0  0  0  0  0
   10.4258   -3.0106   23.0998 C   0  0  0  0  0  0  0  0  0  0  0  0
   10.2148   -3.4364   25.4200 C   0  0  0  0  0  0  0  0  0  0  0  0
    9.7853   -1.1840   24.4927 C   0  0  0  0  0  0  0  0  0  0  0  0
    5.0276   -8.5227   17.5352 C   0  0  0  0  0  0  0  0  0  0  0  0
    9.8187   -2.0895   25.5800 C   0  0  0  0  0  0  0  0  0  0  0  0
    5.6473   -8.7216   15.3158 C   0  0  0  0  0  0  0  0  0  0  0  0
   10.7581   -3.1233   19.4720 N   0  0  0  0  0  0  0  0  0  0  0  0
    9.9571   -4.0573   16.8866 C   0  0  0  0  0  0  0  0  0  0  0  0
    7.6213   -6.5618   16.0087 C   0  0  0  0  0  0  0  0  0  0  0  0
   10.8583   -2.6527   20.7222 C   0  0  0  0  0  0  0  0  0  0  0  0
   10.6412   -3.5089   21.7936 C   0  0  0  0  0  0  0  0  0  0  0  0
   10.4972   -3.8968   24.1589 C   0  0  0  0  0  0  0  0  0  0  0  0
    5.9260   -8.2736   16.5517 C   0  0  0  0  0  0  0  0  0  0  0  0
    3.8816   -9.1166   17.2493 C   0  0  0  0  0  0  0  0  0  0  0  0
   10.1297   -1.6575   23.2324 C   0  0  0  0  0  0  0  0  0  0  0  0
    9.4684   -1.6929   26.7263 F   0  0  0  0  0  0  0  0  0  0  0  0
    7.7963   -7.7906   17.9837 C   0  0  0  0  0  0  0  0  0  0  0  0
   10.5884   -3.0725   16.7902 O   0  0  0  0  0  0  0  0  0  0  0  0
   10.4323   -5.3494   20.3516 C   0  0  0  0  0  0  0  0  0  0  0  0
    7.1156   -7.5454   16.8218 C   0  0  0  0  0  0  0  0  0  0  0  0
   10.3885   -4.4388   19.2773 C   0  0  0  0  0  0  0  0  0  0  0  0
    4.5160   -9.3822   15.0841 C   0  0  0  0  0  0  0  0  0  0  0  0
  1  3  4  0
  1 24  4  0
  2  6  4  0
  2 15  4  0
  3  5  4  0
  3  6  4  0
  4 21  4  0
  4 29  4  0
  5 15  4  0
  5 28  1  0
  6 16  4  0
  7 18  4  0
  7 26  4  0
  8 18  1  0
  8 19  4  0
  8 22  4  0
  9 12  4  0
  9 19  4  0
 10 12  4  0
 10 22  4  0
 11 20  4  0
 11 21  4  0
 12 23  1  0
 13 20  4  0
 13 29  4  0
 14 17  4  0
 14 28  4  0
 15 25  2  0
 16 27  4  0
 17 18  4  0
 20 27  1  0
 24 27  4  0
 26 28  4  0
M  END
$$$$

 Created by Python create_sdf_string function

 29 33  0  0  0  0  0  0  0  0999 V2000
    8.8270   -7.0288   18.4251 C   0  0  0  0  0  0  0  0  0  0  0  0
    9.1576   -4.6236   15.8860 O   0  0  0  0  0  0  0  0  0  0  0  0
    9.1509   -5.9108   17.7177 C   0  0  0  0  0  0  0  0  0  0  0  0
    3.6373   -9.5349   16.0582 N   0  0  0  0  0  0  0  0  0  0  0  0
    9.9275   -4.8001   18.0438 N   0  0  0  0  0  0  0  0  0  0  0  0
    8.5908   -5.7425   16.4412 C   0  0  0  0  0  0  0  0  0  0  0  0
   10.5993   -4.8981   21.6068 C   0  0  0  0  0  0  0  0  0  0  0  0
   10.4258   -3.0106   23.0998 C   0  0  0  0  0  0  0  0  0  0  0  0
   10.2148   -3.4364   25.4200 C   0  0  0  0  0  0  0  0  0  0  0  0
    9.7853   -1.1840   24.4927 C   0  0  0  0  0  0  0  0  0  0  0  0
    5.0276   -8.5227   17.5352 C   0  0  0  0  0  0  0  0  0  0  0  0
    9.8187   -2.0895   25.5800 C   0  0  0  0  0  0  0  0  0  0  0  0
    5.6473   -8.7216   15.3158 C   0  0  0  0  0  0  0  0  0  0  0  0
   10.7581   -3.1233   19.4720 N   0  0  0  0  0  0  0  0  0  0  0  0
    9.9571   -4.0573   16.8866 C   0  0  0  0  0  0  0  0  0  0  0  0
    7.6213   -6.5618   16.0087 C   0  0  0  0  0  0  0  0  0  0  0  0
   10.8583   -2.6527   20.7222 C   0  0  0  0  0  0  0  0  0  0  0  0
   10.6412   -3.5089   21.7936 C   0  0  0  0  0  0  0  0  0  0  0  0
   10.4972   -3.8968   24.1589 C   0  0  0  0  0  0  0  0  0  0  0  0
    5.9260   -8.2736   16.5517 C   0  0  0  0  0  0  0  0  0  0  0  0
    3.8816   -9.1166   17.2493 C   0  0  0  0  0  0  0  0  0  0  0  0
   10.1297   -1.6575   23.2324 C   0  0  0  0  0  0  0  0  0  0  0  0
    9.4684   -1.6929   26.7263 F   0  0  0  0  0  0  0  0  0  0  0  0
    7.7963   -7.7906   17.9837 C   0  0  0  0  0  0  0  0  0  0  0  0
   10.5884   -3.0725   16.7902 O   0  0  0  0  0  0  0  0  0  0  0  0
   10.4323   -5.3494   20.3516 C   0  0  0  0  0  0  0  0  0  0  0  0
    7.1156   -7.5454   16.8218 C   0  0  0  0  0  0  0  0  0  0  0  0
   10.3885   -4.4388   19.2773 C   0  0  0  0  0  0  0  0  0  0  0  0
    4.5160   -9.3822   15.0841 C   0  0  0  0  0  0  0  0  0  0  0  0
  1  3  4  0
  1 24  4  0
  2  6  4  0
  2 15  4  0
  3  5  4  0
  3  6  4  0
  4 21  4  0
  4 29  4  0
  5 15  4  0
  5 28  1  0
  6 16  4  0
  7 18  4  0
  7 26  4  0
  8 18  1  0
  8 19  4  0
  8 22  4  0
  9 12  4  0
  9 19  4  0
 10 12  4  0
 10 22  4  0
 11 20  4  0
 11 21  4  0
 12 23  1  0
 13 20  4  0
 13 29  4  0
 14 17  4  0
 14 28  4  0
 15 25  2  0
 16 27  4  0
 17 18  4  0
 20 27  1  0
 24 27  4  0
 26 28  4  0
M  END
$$$$

 Created by Python create_sdf_string function

 29 33  0  0  0  0  0  0  0  0999 V2000
    8.8270   -7.0288   18.4251 C   0  0  0  0  0  0  0  0  0  0  0  0
    9.1576   -4.6236   15.8860 O   0  0  0  0  0  0  0  0  0  0  0  0
    9.1509   -5.9108   17.7177 C   0  0  0  0  0  0  0  0  0  0  0  0
    3.6373   -9.5349   16.0582 N   0  0  0  0  0  0  0  0  0  0  0  0
    9.9275   -4.8001   18.0438 N   0  0  0  0  0  0  0  0  0  0  0  0
    8.5908   -5.7425   16.4412 C   0  0  0  0  0  0  0  0  0  0  0  0
   10.5993   -4.8981   21.6068 C   0  0  0  0  0  0  0  0  0  0  0  0
   10.4258   -3.0106   23.0998 C   0  0  0  0  0  0  0  0  0  0  0  0
   10.2148   -3.4364   25.4200 C   0  0  0  0  0  0  0  0  0  0  0  0
    9.7853   -1.1840   24.4927 C   0  0  0  0  0  0  0  0  0  0  0  0
    5.0276   -8.5227   17.5352 C   0  0  0  0  0  0  0  0  0  0  0  0
    9.8187   -2.0895   25.5800 C   0  0  0  0  0  0  0  0  0  0  0  0
    5.6473   -8.7216   15.3158 C   0  0  0  0  0  0  0  0  0  0  0  0
   10.7581   -3.1233   19.4720 N   0  0  0  0  0  0  0  0  0  0  0  0
    9.9571   -4.0573   16.8866 C   0  0  0  0  0  0  0  0  0  0  0  0
    7.6213   -6.5618   16.0087 C   0  0  0  0  0  0  0  0  0  0  0  0
   10.8583   -2.6527   20.7222 C   0  0  0  0  0  0  0  0  0  0  0  0
   10.6412   -3.5089   21.7936 C   0  0  0  0  0  0  0  0  0  0  0  0
   10.4972   -3.8968   24.1589 C   0  0  0  0  0  0  0  0  0  0  0  0
    5.9260   -8.2736   16.5517 C   0  0  0  0  0  0  0  0  0  0  0  0
    3.8816   -9.1166   17.2493 C   0  0  0  0  0  0  0  0  0  0  0  0
   10.1297   -1.6575   23.2324 C   0  0  0  0  0  0  0  0  0  0  0  0
    9.4684   -1.6929   26.7263 F   0  0  0  0  0  0  0  0  0  0  0  0
    7.7963   -7.7906   17.9837 C   0  0  0  0  0  0  0  0  0  0  0  0
   10.5884   -3.0725   16.7902 O   0  0  0  0  0  0  0  0  0  0  0  0
   10.4323   -5.3494   20.3516 C   0  0  0  0  0  0  0  0  0  0  0  0
    7.1156   -7.5454   16.8218 C   0  0  0  0  0  0  0  0  0  0  0  0
   10.3885   -4.4388   19.2773 C   0  0  0  0  0  0  0  0  0  0  0  0
    4.5160   -9.3822   15.0841 C   0  0  0  0  0  0  0  0  0  0  0  0
  1  3  4  0
  1 24  4  0
  2  6  4  0
  2 15  4  0
  3  5  4  0
  3  6  4  0
  4 21  4  0
  4 29  4  0
  5 15  4  0
  5 28  1  0
  6 16  4  0
  7 18  4  0
  7 26  4  0
  8 18  1  0
  8 19  4  0
  8 22  4  0
  9 12  4  0
  9 19  4  0
 10 12  4  0
 10 22  4  0
 11 20  4  0
 11 21  4  0
 12 23  1  0
 13 20  4  0
 13 29  4  0
 14 17  4  0
 14 28  4  0
 15 25  2  0
 16 27  4  0
 17 18  4  0
 20 27  1  0
 24 27  4  0
 26 28  4  0
M  END
$$$$

 Created by Python create_sdf_string function

 29 33  0  0  0  0  0  0  0  0999 V2000
    8.8270   -7.0288   18.4251 C   0  0  0  0  0  0  0  0  0  0  0  0
    9.1576   -4.6236   15.8860 O   0  0  0  0  0  0  0  0  0  0  0  0
    9.1509   -5.9108   17.7177 C   0  0  0  0  0  0  0  0  0  0  0  0
    3.6373   -9.5349   16.0582 N   0  0  0  0  0  0  0  0  0  0  0  0
    9.9275   -4.8001   18.0438 N   0  0  0  0  0  0  0  0  0  0  0  0
    8.5908   -5.7425   16.4412 C   0  0  0  0  0  0  0  0  0  0  0  0
   10.5993   -4.8981   21.6068 C   0  0  0  0  0  0  0  0  0  0  0  0
   10.4258   -3.0106   23.0998 C   0  0  0  0  0  0  0  0  0  0  0  0
   10.2148   -3.4364   25.4200 C   0  0  0  0  0  0  0  0  0  0  0  0
    9.7853   -1.1840   24.4927 C   0  0  0  0  0  0  0  0  0  0  0  0
    5.0276   -8.5227   17.5352 C   0  0  0  0  0  0  0  0  0  0  0  0
    9.8187   -2.0895   25.5800 C   0  0  0  0  0  0  0  0  0  0  0  0
    5.6473   -8.7216   15.3158 C   0  0  0  0  0  0  0  0  0  0  0  0
   10.7581   -3.1233   19.4720 N   0  0  0  0  0  0  0  0  0  0  0  0
    9.9571   -4.0573   16.8866 C   0  0  0  0  0  0  0  0  0  0  0  0
    7.6213   -6.5618   16.0087 C   0  0  0  0  0  0  0  0  0  0  0  0
   10.8583   -2.6527   20.7222 C   0  0  0  0  0  0  0  0  0  0  0  0
   10.6412   -3.5089   21.7936 C   0  0  0  0  0  0  0  0  0  0  0  0
   10.4972   -3.8968   24.1589 C   0  0  0  0  0  0  0  0  0  0  0  0
    5.9260   -8.2736   16.5517 C   0  0  0  0  0  0  0  0  0  0  0  0
    3.8816   -9.1166   17.2493 C   0  0  0  0  0  0  0  0  0  0  0  0
   10.1297   -1.6575   23.2324 C   0  0  0  0  0  0  0  0  0  0  0  0
    9.4684   -1.6929   26.7263 F   0  0  0  0  0  0  0  0  0  0  0  0
    7.7963   -7.7906   17.9837 C   0  0  0  0  0  0  0  0  0  0  0  0
   10.5884   -3.0725   16.7902 O   0  0  0  0  0  0  0  0  0  0  0  0
   10.4323   -5.3494   20.3516 C   0  0  0  0  0  0  0  0  0  0  0  0
    7.1156   -7.5454   16.8218 C   0  0  0  0  0  0  0  0  0  0  0  0
   10.3885   -4.4388   19.2773 C   0  0  0  0  0  0  0  0  0  0  0  0
    4.5160   -9.3822   15.0841 C   0  0  0  0  0  0  0  0  0  0  0  0
  1  3  4  0
  1 24  4  0
  2  6  4  0
  2 15  4  0
  3  5  4  0
  3  6  4  0
  4 21  4  0
  4 29  4  0
  5 15  4  0
  5 28  1  0
  6 16  4  0
  7 18  4  0
  7 26  4  0
  8 18  1  0
  8 19  4  0
  8 22  4  0
  9 12  4  0
  9 19  4  0
 10 12  4  0
 10 22  4  0
 11 20  4  0
 11 21  4  0
 12 23  1  0
 13 20  4  0
 13 29  4  0
 14 17  4  0
 14 28  4  0
 15 25  2  0
 16 27  4  0
 17 18  4  0
 20 27  1  0
 24 27  4  0
 26 28  4  0
M  END
$$$$

 Created by Python create_sdf_string function

 29 33  0  0  0  0  0  0  0  0999 V2000
    8.8270   -7.0288   18.4251 C   0  0  0  0  0  0  0  0  0  0  0  0
    9.1576   -4.6236   15.8860 O   0  0  0  0  0  0  0  0  0  0  0  0
    9.1509   -5.9108   17.7177 C   0  0  0  0  0  0  0  0  0  0  0  0
    3.6373   -9.5349   16.0582 N   0  0  0  0  0  0  0  0  0  0  0  0
    9.9275   -4.8001   18.0438 N   0  0  0  0  0  0  0  0  0  0  0  0
    8.5908   -5.7425   16.4412 C   0  0  0  0  0  0  0  0  0  0  0  0
   10.5993   -4.8981   21.6068 C   0  0  0  0  0  0  0  0  0  0  0  0
   10.4258   -3.0106   23.0998 C   0  0  0  0  0  0  0  0  0  0  0  0
   10.2148   -3.4364   25.4200 C   0  0  0  0  0  0  0  0  0  0  0  0
    9.7853   -1.1840   24.4927 C   0  0  0  0  0  0  0  0  0  0  0  0
    5.0276   -8.5227   17.5352 C   0  0  0  0  0  0  0  0  0  0  0  0
    9.8187   -2.0895   25.5800 C   0  0  0  0  0  0  0  0  0  0  0  0
    5.6473   -8.7216   15.3158 C   0  0  0  0  0  0  0  0  0  0  0  0
   10.7581   -3.1233   19.4720 N   0  0  0  0  0  0  0  0  0  0  0  0
    9.9571   -4.0573   16.8866 C   0  0  0  0  0  0  0  0  0  0  0  0
    7.6213   -6.5618   16.0087 C   0  0  0  0  0  0  0  0  0  0  0  0
   10.8583   -2.6527   20.7222 C   0  0  0  0  0  0  0  0  0  0  0  0
   10.6412   -3.5089   21.7936 C   0  0  0  0  0  0  0  0  0  0  0  0
   10.4972   -3.8968   24.1589 C   0  0  0  0  0  0  0  0  0  0  0  0
    5.9260   -8.2736   16.5517 C   0  0  0  0  0  0  0  0  0  0  0  0
    3.8816   -9.1166   17.2493 C   0  0  0  0  0  0  0  0  0  0  0  0
   10.1297   -1.6575   23.2324 C   0  0  0  0  0  0  0  0  0  0  0  0
    9.4684   -1.6929   26.7263 F   0  0  0  0  0  0  0  0  0  0  0  0
    7.7963   -7.7906   17.9837 C   0  0  0  0  0  0  0  0  0  0  0  0
   10.5884   -3.0725   16.7902 O   0  0  0  0  0  0  0  0  0  0  0  0
   10.4323   -5.3494   20.3516 C   0  0  0  0  0  0  0  0  0  0  0  0
    7.1156   -7.5454   16.8218 C   0  0  0  0  0  0  0  0  0  0  0  0
   10.3885   -4.4388   19.2773 C   0  0  0  0  0  0  0  0  0  0  0  0
    4.5160   -9.3822   15.0841 C   0  0  0  0  0  0  0  0  0  0  0  0
  1  3  4  0
  1 24  4  0
  2  6  4  0
  2 15  4  0
  3  5  4  0
  3  6  4  0
  4 21  4  0
  4 29  4  0
  5 15  4  0
  5 28  1  0
  6 16  4  0
  7 18  4  0
  7 26  4  0
  8 18  1  0
  8 19  4  0
  8 22  4  0
  9 12  4  0
  9 19  4  0
 10 12  4  0
 10 22  4  0
 11 20  4  0
 11 21  4  0
 12 23  1  0
 13 20  4  0
 13 29  4  0
 14 17  4  0
 14 28  4  0
 15 25  2  0
 16 27  4  0
 17 18  4  0
 20 27  1  0
 24 27  4  0
 26 28  4  0
M  END
$$$$

 Created by Python create_sdf_string function

 29 33  0  0  0  0  0  0  0  0999 V2000
    8.8270   -7.0288   18.4251 C   0  0  0  0  0  0  0  0  0  0  0  0
    9.1576   -4.6236   15.8860 O   0  0  0  0  0  0  0  0  0  0  0  0
    9.1509   -5.9108   17.7177 C   0  0  0  0  0  0  0  0  0  0  0  0
    3.6373   -9.5349   16.0582 N   0  0  0  0  0  0  0  0  0  0  0  0
    9.9275   -4.8001   18.0438 N   0  0  0  0  0  0  0  0  0  0  0  0
    8.5908   -5.7425   16.4412 C   0  0  0  0  0  0  0  0  0  0  0  0
   10.5993   -4.8981   21.6068 C   0  0  0  0  0  0  0  0  0  0  0  0
   10.4258   -3.0106   23.0998 C   0  0  0  0  0  0  0  0  0  0  0  0
   10.2148   -3.4364   25.4200 C   0  0  0  0  0  0  0  0  0  0  0  0
    9.7853   -1.1840   24.4927 C   0  0  0  0  0  0  0  0  0  0  0  0
    5.0276   -8.5227   17.5352 C   0  0  0  0  0  0  0  0  0  0  0  0
    9.8187   -2.0895   25.5800 C   0  0  0  0  0  0  0  0  0  0  0  0
    5.6473   -8.7216   15.3158 C   0  0  0  0  0  0  0  0  0  0  0  0
   10.7581   -3.1233   19.4720 N   0  0  0  0  0  0  0  0  0  0  0  0
    9.9571   -4.0573   16.8866 C   0  0  0  0  0  0  0  0  0  0  0  0
    7.6213   -6.5618   16.0087 C   0  0  0  0  0  0  0  0  0  0  0  0
   10.8583   -2.6527   20.7222 C   0  0  0  0  0  0  0  0  0  0  0  0
   10.6412   -3.5089   21.7936 C   0  0  0  0  0  0  0  0  0  0  0  0
   10.4972   -3.8968   24.1589 C   0  0  0  0  0  0  0  0  0  0  0  0
    5.9260   -8.2736   16.5517 C   0  0  0  0  0  0  0  0  0  0  0  0
    3.8816   -9.1166   17.2493 C   0  0  0  0  0  0  0  0  0  0  0  0
   10.1297   -1.6575   23.2324 C   0  0  0  0  0  0  0  0  0  0  0  0
    9.4684   -1.6929   26.7263 F   0  0  0  0  0  0  0  0  0  0  0  0
    7.7963   -7.7906   17.9837 C   0  0  0  0  0  0  0  0  0  0  0  0
   10.5884   -3.0725   16.7902 O   0  0  0  0  0  0  0  0  0  0  0  0
   10.4323   -5.3494   20.3516 C   0  0  0  0  0  0  0  0  0  0  0  0
    7.1156   -7.5454   16.8218 C   0  0  0  0  0  0  0  0  0  0  0  0
   10.3885   -4.4388   19.2773 C   0  0  0  0  0  0  0  0  0  0  0  0
    4.5160   -9.3822   15.0841 C   0  0  0  0  0  0  0  0  0  0  0  0
  1  3  4  0
  1 24  4  0
  2  6  4  0
  2 15  4  0
  3  5  4  0
  3  6  4  0
  4 21  4  0
  4 29  4  0
  5 15  4  0
  5 28  1  0
  6 16  4  0
  7 18  4  0
  7 26  4  0
  8 18  1  0
  8 19  4  0
  8 22  4  0
  9 12  4  0
  9 19  4  0
 10 12  4  0
 10 22  4  0
 11 20  4  0
 11 21  4  0
 12 23  1  0
 13 20  4  0
 13 29  4  0
 14 17  4  0
 14 28  4  0
 15 25  2  0
 16 27  4  0
 17 18  4  0
 20 27  1  0
 24 27  4  0
 26 28  4  0
M  END
$$$$

 Created by Python create_sdf_string function

 29 33  0  0  0  0  0  0  0  0999 V2000
    8.8270   -7.0288   18.4251 C   0  0  0  0  0  0  0  0  0  0  0  0
    9.1576   -4.6236   15.8860 O   0  0  0  0  0  0  0  0  0  0  0  0
    9.1509   -5.9108   17.7177 C   0  0  0  0  0  0  0  0  0  0  0  0
    3.6373   -9.5349   16.0582 N   0  0  0  0  0  0  0  0  0  0  0  0
    9.9275   -4.8001   18.0438 N   0  0  0  0  0  0  0  0  0  0  0  0
    8.5908   -5.7425   16.4412 C   0  0  0  0  0  0  0  0  0  0  0  0
   10.5993   -4.8981   21.6068 C   0  0  0  0  0  0  0  0  0  0  0  0
   10.4258   -3.0106   23.0998 C   0  0  0  0  0  0  0  0  0  0  0  0
   10.2148   -3.4364   25.4200 C   0  0  0  0  0  0  0  0  0  0  0  0
    9.7853   -1.1840   24.4927 C   0  0  0  0  0  0  0  0  0  0  0  0
    5.0276   -8.5227   17.5352 C   0  0  0  0  0  0  0  0  0  0  0  0
    9.8187   -2.0895   25.5800 C   0  0  0  0  0  0  0  0  0  0  0  0
    5.6473   -8.7216   15.3158 C   0  0  0  0  0  0  0  0  0  0  0  0
   10.7581   -3.1233   19.4720 N   0  0  0  0  0  0  0  0  0  0  0  0
    9.9571   -4.0573   16.8866 C   0  0  0  0  0  0  0  0  0  0  0  0
    7.6213   -6.5618   16.0087 C   0  0  0  0  0  0  0  0  0  0  0  0
   10.8583   -2.6527   20.7222 C   0  0  0  0  0  0  0  0  0  0  0  0
   10.6412   -3.5089   21.7936 C   0  0  0  0  0  0  0  0  0  0  0  0
   10.4972   -3.8968   24.1589 C   0  0  0  0  0  0  0  0  0  0  0  0
    5.9260   -8.2736   16.5517 C   0  0  0  0  0  0  0  0  0  0  0  0
    3.8816   -9.1166   17.2493 C   0  0  0  0  0  0  0  0  0  0  0  0
   10.1297   -1.6575   23.2324 C   0  0  0  0  0  0  0  0  0  0  0  0
    9.4684   -1.6929   26.7263 F   0  0  0  0  0  0  0  0  0  0  0  0
    7.7963   -7.7906   17.9837 C   0  0  0  0  0  0  0  0  0  0  0  0
   10.5884   -3.0725   16.7902 O   0  0  0  0  0  0  0  0  0  0  0  0
   10.4323   -5.3494   20.3516 C   0  0  0  0  0  0  0  0  0  0  0  0
    7.1156   -7.5454   16.8218 C   0  0  0  0  0  0  0  0  0  0  0  0
   10.3885   -4.4388   19.2773 C   0  0  0  0  0  0  0  0  0  0  0  0
    4.5160   -9.3822   15.0841 C   0  0  0  0  0  0  0  0  0  0  0  0
  1  3  4  0
  1 24  4  0
  2  6  4  0
  2 15  4  0
  3  5  4  0
  3  6  4  0
  4 21  4  0
  4 29  4  0
  5 15  4  0
  5 28  1  0
  6 16  4  0
  7 18  4  0
  7 26  4  0
  8 18  1  0
  8 19  4  0
  8 22  4  0
  9 12  4  0
  9 19  4  0
 10 12  4  0
 10 22  4  0
 11 20  4  0
 11 21  4  0
 12 23  1  0
 13 20  4  0
 13 29  4  0
 14 17  4  0
 14 28  4  0
 15 25  2  0
 16 27  4  0
 17 18  4  0
 20 27  1  0
 24 27  4  0
 26 28  4  0
M  END
$$$$

 Created by Python create_sdf_string function

 29 33  0  0  0  0  0  0  0  0999 V2000
    8.8270   -7.0288   18.4251 C   0  0  0  0  0  0  0  0  0  0  0  0
    9.1576   -4.6236   15.8860 O   0  0  0  0  0  0  0  0  0  0  0  0
    9.1509   -5.9108   17.7177 C   0  0  0  0  0  0  0  0  0  0  0  0
    3.6373   -9.5349   16.0582 N   0  0  0  0  0  0  0  0  0  0  0  0
    9.9275   -4.8001   18.0438 N   0  0  0  0  0  0  0  0  0  0  0  0
    8.5908   -5.7425   16.4412 C   0  0  0  0  0  0  0  0  0  0  0  0
   10.5993   -4.8981   21.6068 C   0  0  0  0  0  0  0  0  0  0  0  0
   10.4258   -3.0106   23.0998 C   0  0  0  0  0  0  0  0  0  0  0  0
   10.2148   -3.4364   25.4200 C   0  0  0  0  0  0  0  0  0  0  0  0
    9.7853   -1.1840   24.4927 C   0  0  0  0  0  0  0  0  0  0  0  0
    5.0276   -8.5227   17.5352 C   0  0  0  0  0  0  0  0  0  0  0  0
    9.8187   -2.0895   25.5800 C   0  0  0  0  0  0  0  0  0  0  0  0
    5.6473   -8.7216   15.3158 C   0  0  0  0  0  0  0  0  0  0  0  0
   10.7581   -3.1233   19.4720 N   0  0  0  0  0  0  0  0  0  0  0  0
    9.9571   -4.0573   16.8866 C   0  0  0  0  0  0  0  0  0  0  0  0
    7.6213   -6.5618   16.0087 C   0  0  0  0  0  0  0  0  0  0  0  0
   10.8583   -2.6527   20.7222 C   0  0  0  0  0  0  0  0  0  0  0  0
   10.6412   -3.5089   21.7936 C   0  0  0  0  0  0  0  0  0  0  0  0
   10.4972   -3.8968   24.1589 C   0  0  0  0  0  0  0  0  0  0  0  0
    5.9260   -8.2736   16.5517 C   0  0  0  0  0  0  0  0  0  0  0  0
    3.8816   -9.1166   17.2493 C   0  0  0  0  0  0  0  0  0  0  0  0
   10.1297   -1.6575   23.2324 C   0  0  0  0  0  0  0  0  0  0  0  0
    9.4684   -1.6929   26.7263 F   0  0  0  0  0  0  0  0  0  0  0  0
    7.7963   -7.7906   17.9837 C   0  0  0  0  0  0  0  0  0  0  0  0
   10.5884   -3.0725   16.7902 O   0  0  0  0  0  0  0  0  0  0  0  0
   10.4323   -5.3494   20.3516 C   0  0  0  0  0  0  0  0  0  0  0  0
    7.1156   -7.5454   16.8218 C   0  0  0  0  0  0  0  0  0  0  0  0
   10.3885   -4.4388   19.2773 C   0  0  0  0  0  0  0  0  0  0  0  0
    4.5160   -9.3822   15.0841 C   0  0  0  0  0  0  0  0  0  0  0  0
  1  3  4  0
  1 24  4  0
  2  6  4  0
  2 15  4  0
  3  5  4  0
  3  6  4  0
  4 21  4  0
  4 29  4  0
  5 15  4  0
  5 28  1  0
  6 16  4  0
  7 18  4  0
  7 26  4  0
  8 18  1  0
  8 19  4  0
  8 22  4  0
  9 12  4  0
  9 19  4  0
 10 12  4  0
 10 22  4  0
 11 20  4  0
 11 21  4  0
 12 23  1  0
 13 20  4  0
 13 29  4  0
 14 17  4  0
 14 28  4  0
 15 25  2  0
 16 27  4  0
 17 18  4  0
 20 27  1  0
 24 27  4  0
 26 28  4  0
M  END
$$$$

 Created by Python create_sdf_string function

 29 33  0  0  0  0  0  0  0  0999 V2000
    8.8270   -7.0288   18.4251 C   0  0  0  0  0  0  0  0  0  0  0  0
    9.1576   -4.6236   15.8860 O   0  0  0  0  0  0  0  0  0  0  0  0
    9.1509   -5.9108   17.7177 C   0  0  0  0  0  0  0  0  0  0  0  0
    3.6373   -9.5349   16.0582 N   0  0  0  0  0  0  0  0  0  0  0  0
    9.9275   -4.8001   18.0438 N   0  0  0  0  0  0  0  0  0  0  0  0
    8.5908   -5.7425   16.4412 C   0  0  0  0  0  0  0  0  0  0  0  0
   10.5993   -4.8981   21.6068 C   0  0  0  0  0  0  0  0  0  0  0  0
   10.4258   -3.0106   23.0998 C   0  0  0  0  0  0  0  0  0  0  0  0
   10.2148   -3.4364   25.4200 C   0  0  0  0  0  0  0  0  0  0  0  0
    9.7853   -1.1840   24.4927 C   0  0  0  0  0  0  0  0  0  0  0  0
    5.0276   -8.5227   17.5352 C   0  0  0  0  0  0  0  0  0  0  0  0
    9.8187   -2.0895   25.5800 C   0  0  0  0  0  0  0  0  0  0  0  0
    5.6473   -8.7216   15.3158 C   0  0  0  0  0  0  0  0  0  0  0  0
   10.7581   -3.1233   19.4720 N   0  0  0  0  0  0  0  0  0  0  0  0
    9.9571   -4.0573   16.8866 C   0  0  0  0  0  0  0  0  0  0  0  0
    7.6213   -6.5618   16.0087 C   0  0  0  0  0  0  0  0  0  0  0  0
   10.8583   -2.6527   20.7222 C   0  0  0  0  0  0  0  0  0  0  0  0
   10.6412   -3.5089   21.7936 C   0  0  0  0  0  0  0  0  0  0  0  0
   10.4972   -3.8968   24.1589 C   0  0  0  0  0  0  0  0  0  0  0  0
    5.9260   -8.2736   16.5517 C   0  0  0  0  0  0  0  0  0  0  0  0
    3.8816   -9.1166   17.2493 C   0  0  0  0  0  0  0  0  0  0  0  0
   10.1297   -1.6575   23.2324 C   0  0  0  0  0  0  0  0  0  0  0  0
    9.4684   -1.6929   26.7263 F   0  0  0  0  0  0  0  0  0  0  0  0
    7.7963   -7.7906   17.9837 C   0  0  0  0  0  0  0  0  0  0  0  0
   10.5884   -3.0725   16.7902 O   0  0  0  0  0  0  0  0  0  0  0  0
   10.4323   -5.3494   20.3516 C   0  0  0  0  0  0  0  0  0  0  0  0
    7.1156   -7.5454   16.8218 C   0  0  0  0  0  0  0  0  0  0  0  0
   10.3885   -4.4388   19.2773 C   0  0  0  0  0  0  0  0  0  0  0  0
    4.5160   -9.3822   15.0841 C   0  0  0  0  0  0  0  0  0  0  0  0
  1  3  4  0
  1 24  4  0
  2  6  4  0
  2 15  4  0
  3  5  4  0
  3  6  4  0
  4 21  4  0
  4 29  4  0
  5 15  4  0
  5 28  1  0
  6 16  4  0
  7 18  4  0
  7 26  4  0
  8 18  1  0
  8 19  4  0
  8 22  4  0
  9 12  4  0
  9 19  4  0
 10 12  4  0
 10 22  4  0
 11 20  4  0
 11 21  4  0
 12 23  1  0
 13 20  4  0
 13 29  4  0
 14 17  4  0
 14 28  4  0
 15 25  2  0
 16 27  4  0
 17 18  4  0
 20 27  1  0
 24 27  4  0
 26 28  4  0
M  END
$$$$

 Created by Python create_sdf_string function

 29 33  0  0  0  0  0  0  0  0999 V2000
    8.8270   -7.0288   18.4251 C   0  0  0  0  0  0  0  0  0  0  0  0
    9.1576   -4.6236   15.8860 O   0  0  0  0  0  0  0  0  0  0  0  0
    9.1509   -5.9108   17.7177 C   0  0  0  0  0  0  0  0  0  0  0  0
    3.6373   -9.5349   16.0582 N   0  0  0  0  0  0  0  0  0  0  0  0
    9.9275   -4.8001   18.0438 N   0  0  0  0  0  0  0  0  0  0  0  0
    8.5908   -5.7425   16.4412 C   0  0  0  0  0  0  0  0  0  0  0  0
   10.5993   -4.8981   21.6068 C   0  0  0  0  0  0  0  0  0  0  0  0
   10.4258   -3.0106   23.0998 C   0  0  0  0  0  0  0  0  0  0  0  0
   10.2148   -3.4364   25.4200 C   0  0  0  0  0  0  0  0  0  0  0  0
    9.7853   -1.1840   24.4927 C   0  0  0  0  0  0  0  0  0  0  0  0
    5.0276   -8.5227   17.5352 C   0  0  0  0  0  0  0  0  0  0  0  0
    9.8187   -2.0895   25.5800 C   0  0  0  0  0  0  0  0  0  0  0  0
    5.6473   -8.7216   15.3158 C   0  0  0  0  0  0  0  0  0  0  0  0
   10.7581   -3.1233   19.4720 N   0  0  0  0  0  0  0  0  0  0  0  0
    9.9571   -4.0573   16.8866 C   0  0  0  0  0  0  0  0  0  0  0  0
    7.6213   -6.5618   16.0087 C   0  0  0  0  0  0  0  0  0  0  0  0
   10.8583   -2.6527   20.7222 C   0  0  0  0  0  0  0  0  0  0  0  0
   10.6412   -3.5089   21.7936 C   0  0  0  0  0  0  0  0  0  0  0  0
   10.4972   -3.8968   24.1589 C   0  0  0  0  0  0  0  0  0  0  0  0
    5.9260   -8.2736   16.5517 C   0  0  0  0  0  0  0  0  0  0  0  0
    3.8816   -9.1166   17.2493 C   0  0  0  0  0  0  0  0  0  0  0  0
   10.1297   -1.6575   23.2324 C   0  0  0  0  0  0  0  0  0  0  0  0
    9.4684   -1.6929   26.7263 F   0  0  0  0  0  0  0  0  0  0  0  0
    7.7963   -7.7906   17.9837 C   0  0  0  0  0  0  0  0  0  0  0  0
   10.5884   -3.0725   16.7902 O   0  0  0  0  0  0  0  0  0  0  0  0
   10.4323   -5.3494   20.3516 C   0  0  0  0  0  0  0  0  0  0  0  0
    7.1156   -7.5454   16.8218 C   0  0  0  0  0  0  0  0  0  0  0  0
   10.3885   -4.4388   19.2773 C   0  0  0  0  0  0  0  0  0  0  0  0
    4.5160   -9.3822   15.0841 C   0  0  0  0  0  0  0  0  0  0  0  0
  1  3  4  0
  1 24  4  0
  2  6  4  0
  2 15  4  0
  3  5  4  0
  3  6  4  0
  4 21  4  0
  4 29  4  0
  5 15  4  0
  5 28  1  0
  6 16  4  0
  7 18  4  0
  7 26  4  0
  8 18  1  0
  8 19  4  0
  8 22  4  0
  9 12  4  0
  9 19  4  0
 10 12  4  0
 10 22  4  0
 11 20  4  0
 11 21  4  0
 12 23  1  0
 13 20  4  0
 13 29  4  0
 14 17  4  0
 14 28  4  0
 15 25  2  0
 16 27  4  0
 17 18  4  0
 20 27  1  0
 24 27  4  0
 26 28  4  0
M  END
$$$$

 Created by Python create_sdf_string function

 29 33  0  0  0  0  0  0  0  0999 V2000
    8.8270   -7.0288   18.4251 C   0  0  0  0  0  0  0  0  0  0  0  0
    9.1576   -4.6236   15.8860 O   0  0  0  0  0  0  0  0  0  0  0  0
    9.1509   -5.9108   17.7177 C   0  0  0  0  0  0  0  0  0  0  0  0
    3.6373   -9.5349   16.0582 N   0  0  0  0  0  0  0  0  0  0  0  0
    9.9275   -4.8001   18.0438 N   0  0  0  0  0  0  0  0  0  0  0  0
    8.5908   -5.7425   16.4412 C   0  0  0  0  0  0  0  0  0  0  0  0
   10.5993   -4.8981   21.6068 C   0  0  0  0  0  0  0  0  0  0  0  0
   10.4258   -3.0106   23.0998 C   0  0  0  0  0  0  0  0  0  0  0  0
   10.2148   -3.4364   25.4200 C   0  0  0  0  0  0  0  0  0  0  0  0
    9.7853   -1.1840   24.4927 C   0  0  0  0  0  0  0  0  0  0  0  0
    5.0276   -8.5227   17.5352 C   0  0  0  0  0  0  0  0  0  0  0  0
    9.8187   -2.0895   25.5800 C   0  0  0  0  0  0  0  0  0  0  0  0
    5.6473   -8.7216   15.3158 C   0  0  0  0  0  0  0  0  0  0  0  0
   10.7581   -3.1233   19.4720 N   0  0  0  0  0  0  0  0  0  0  0  0
    9.9571   -4.0573   16.8866 C   0  0  0  0  0  0  0  0  0  0  0  0
    7.6213   -6.5618   16.0087 C   0  0  0  0  0  0  0  0  0  0  0  0
   10.8583   -2.6527   20.7222 C   0  0  0  0  0  0  0  0  0  0  0  0
   10.6412   -3.5089   21.7936 C   0  0  0  0  0  0  0  0  0  0  0  0
   10.4972   -3.8968   24.1589 C   0  0  0  0  0  0  0  0  0  0  0  0
    5.9260   -8.2736   16.5517 C   0  0  0  0  0  0  0  0  0  0  0  0
    3.8816   -9.1166   17.2493 C   0  0  0  0  0  0  0  0  0  0  0  0
   10.1297   -1.6575   23.2324 C   0  0  0  0  0  0  0  0  0  0  0  0
    9.4684   -1.6929   26.7263 F   0  0  0  0  0  0  0  0  0  0  0  0
    7.7963   -7.7906   17.9837 C   0  0  0  0  0  0  0  0  0  0  0  0
   10.5884   -3.0725   16.7902 O   0  0  0  0  0  0  0  0  0  0  0  0
   10.4323   -5.3494   20.3516 C   0  0  0  0  0  0  0  0  0  0  0  0
    7.1156   -7.5454   16.8218 C   0  0  0  0  0  0  0  0  0  0  0  0
   10.3885   -4.4388   19.2773 C   0  0  0  0  0  0  0  0  0  0  0  0
    4.5160   -9.3822   15.0841 C   0  0  0  0  0  0  0  0  0  0  0  0
  1  3  4  0
  1 24  4  0
  2  6  4  0
  2 15  4  0
  3  5  4  0
  3  6  4  0
  4 21  4  0
  4 29  4  0
  5 15  4  0
  5 28  1  0
  6 16  4  0
  7 18  4  0
  7 26  4  0
  8 18  1  0
  8 19  4  0
  8 22  4  0
  9 12  4  0
  9 19  4  0
 10 12  4  0
 10 22  4  0
 11 20  4  0
 11 21  4  0
 12 23  1  0
 13 20  4  0
 13 29  4  0
 14 17  4  0
 14 28  4  0
 15 25  2  0
 16 27  4  0
 17 18  4  0
 20 27  1  0
 24 27  4  0
 26 28  4  0
M  END
$$$$

 Created by Python create_sdf_string function

 29 33  0  0  0  0  0  0  0  0999 V2000
    8.8270   -7.0288   18.4251 C   0  0  0  0  0  0  0  0  0  0  0  0
    9.1576   -4.6236   15.8860 O   0  0  0  0  0  0  0  0  0  0  0  0
    9.1509   -5.9108   17.7177 C   0  0  0  0  0  0  0  0  0  0  0  0
    3.6373   -9.5349   16.0582 N   0  0  0  0  0  0  0  0  0  0  0  0
    9.9275   -4.8001   18.0438 N   0  0  0  0  0  0  0  0  0  0  0  0
    8.5908   -5.7425   16.4412 C   0  0  0  0  0  0  0  0  0  0  0  0
   10.5993   -4.8981   21.6068 C   0  0  0  0  0  0  0  0  0  0  0  0
   10.4258   -3.0106   23.0998 C   0  0  0  0  0  0  0  0  0  0  0  0
   10.2148   -3.4364   25.4200 C   0  0  0  0  0  0  0  0  0  0  0  0
    9.7853   -1.1840   24.4927 C   0  0  0  0  0  0  0  0  0  0  0  0
    5.0276   -8.5227   17.5352 C   0  0  0  0  0  0  0  0  0  0  0  0
    9.8187   -2.0895   25.5800 C   0  0  0  0  0  0  0  0  0  0  0  0
    5.6473   -8.7216   15.3158 C   0  0  0  0  0  0  0  0  0  0  0  0
   10.7581   -3.1233   19.4720 N   0  0  0  0  0  0  0  0  0  0  0  0
    9.9571   -4.0573   16.8866 C   0  0  0  0  0  0  0  0  0  0  0  0
    7.6213   -6.5618   16.0087 C   0  0  0  0  0  0  0  0  0  0  0  0
   10.8583   -2.6527   20.7222 C   0  0  0  0  0  0  0  0  0  0  0  0
   10.6412   -3.5089   21.7936 C   0  0  0  0  0  0  0  0  0  0  0  0
   10.4972   -3.8968   24.1589 C   0  0  0  0  0  0  0  0  0  0  0  0
    5.9260   -8.2736   16.5517 C   0  0  0  0  0  0  0  0  0  0  0  0
    3.8816   -9.1166   17.2493 C   0  0  0  0  0  0  0  0  0  0  0  0
   10.1297   -1.6575   23.2324 C   0  0  0  0  0  0  0  0  0  0  0  0
    9.4684   -1.6929   26.7263 F   0  0  0  0  0  0  0  0  0  0  0  0
    7.7963   -7.7906   17.9837 C   0  0  0  0  0  0  0  0  0  0  0  0
   10.5884   -3.0725   16.7902 O   0  0  0  0  0  0  0  0  0  0  0  0
   10.4323   -5.3494   20.3516 C   0  0  0  0  0  0  0  0  0  0  0  0
    7.1156   -7.5454   16.8218 C   0  0  0  0  0  0  0  0  0  0  0  0
   10.3885   -4.4388   19.2773 C   0  0  0  0  0  0  0  0  0  0  0  0
    4.5160   -9.3822   15.0841 C   0  0  0  0  0  0  0  0  0  0  0  0
  1  3  4  0
  1 24  4  0
  2  6  4  0
  2 15  4  0
  3  5  4  0
  3  6  4  0
  4 21  4  0
  4 29  4  0
  5 15  4  0
  5 28  1  0
  6 16  4  0
  7 18  4  0
  7 26  4  0
  8 18  1  0
  8 19  4  0
  8 22  4  0
  9 12  4  0
  9 19  4  0
 10 12  4  0
 10 22  4  0
 11 20  4  0
 11 21  4  0
 12 23  1  0
 13 20  4  0
 13 29  4  0
 14 17  4  0
 14 28  4  0
 15 25  2  0
 16 27  4  0
 17 18  4  0
 20 27  1  0
 24 27  4  0
 26 28  4  0
M  END
$$$$

 Created by Python create_sdf_string function

 29 33  0  0  0  0  0  0  0  0999 V2000
    8.8270   -7.0288   18.4251 C   0  0  0  0  0  0  0  0  0  0  0  0
    9.1576   -4.6236   15.8860 O   0  0  0  0  0  0  0  0  0  0  0  0
    9.1509   -5.9108   17.7177 C   0  0  0  0  0  0  0  0  0  0  0  0
    3.6373   -9.5349   16.0582 N   0  0  0  0  0  0  0  0  0  0  0  0
    9.9275   -4.8001   18.0438 N   0  0  0  0  0  0  0  0  0  0  0  0
    8.5908   -5.7425   16.4412 C   0  0  0  0  0  0  0  0  0  0  0  0
   10.5993   -4.8981   21.6068 C   0  0  0  0  0  0  0  0  0  0  0  0
   10.4258   -3.0106   23.0998 C   0  0  0  0  0  0  0  0  0  0  0  0
   10.2148   -3.4364   25.4200 C   0  0  0  0  0  0  0  0  0  0  0  0
    9.7853   -1.1840   24.4927 C   0  0  0  0  0  0  0  0  0  0  0  0
    5.0276   -8.5227   17.5352 C   0  0  0  0  0  0  0  0  0  0  0  0
    9.8187   -2.0895   25.5800 C   0  0  0  0  0  0  0  0  0  0  0  0
    5.6473   -8.7216   15.3158 C   0  0  0  0  0  0  0  0  0  0  0  0
   10.7581   -3.1233   19.4720 N   0  0  0  0  0  0  0  0  0  0  0  0
    9.9571   -4.0573   16.8866 C   0  0  0  0  0  0  0  0  0  0  0  0
    7.6213   -6.5618   16.0087 C   0  0  0  0  0  0  0  0  0  0  0  0
   10.8583   -2.6527   20.7222 C   0  0  0  0  0  0  0  0  0  0  0  0
   10.6412   -3.5089   21.7936 C   0  0  0  0  0  0  0  0  0  0  0  0
   10.4972   -3.8968   24.1589 C   0  0  0  0  0  0  0  0  0  0  0  0
    5.9260   -8.2736   16.5517 C   0  0  0  0  0  0  0  0  0  0  0  0
    3.8816   -9.1166   17.2493 C   0  0  0  0  0  0  0  0  0  0  0  0
   10.1297   -1.6575   23.2324 C   0  0  0  0  0  0  0  0  0  0  0  0
    9.4684   -1.6929   26.7263 F   0  0  0  0  0  0  0  0  0  0  0  0
    7.7963   -7.7906   17.9837 C   0  0  0  0  0  0  0  0  0  0  0  0
   10.5884   -3.0725   16.7902 O   0  0  0  0  0  0  0  0  0  0  0  0
   10.4323   -5.3494   20.3516 C   0  0  0  0  0  0  0  0  0  0  0  0
    7.1156   -7.5454   16.8218 C   0  0  0  0  0  0  0  0  0  0  0  0
   10.3885   -4.4388   19.2773 C   0  0  0  0  0  0  0  0  0  0  0  0
    4.5160   -9.3822   15.0841 C   0  0  0  0  0  0  0  0  0  0  0  0
  1  3  4  0
  1 24  4  0
  2  6  4  0
  2 15  4  0
  3  5  4  0
  3  6  4  0
  4 21  4  0
  4 29  4  0
  5 15  4  0
  5 28  1  0
  6 16  4  0
  7 18  4  0
  7 26  4  0
  8 18  1  0
  8 19  4  0
  8 22  4  0
  9 12  4  0
  9 19  4  0
 10 12  4  0
 10 22  4  0
 11 20  4  0
 11 21  4  0
 12 23  1  0
 13 20  4  0
 13 29  4  0
 14 17  4  0
 14 28  4  0
 15 25  2  0
 16 27  4  0
 17 18  4  0
 20 27  1  0
 24 27  4  0
 26 28  4  0
M  END
$$$$

 Created by Python create_sdf_string function

 29 33  0  0  0  0  0  0  0  0999 V2000
    8.8270   -7.0288   18.4251 C   0  0  0  0  0  0  0  0  0  0  0  0
    9.1576   -4.6236   15.8860 O   0  0  0  0  0  0  0  0  0  0  0  0
    9.1509   -5.9108   17.7177 C   0  0  0  0  0  0  0  0  0  0  0  0
    3.6373   -9.5349   16.0582 N   0  0  0  0  0  0  0  0  0  0  0  0
    9.9275   -4.8001   18.0438 N   0  0  0  0  0  0  0  0  0  0  0  0
    8.5908   -5.7425   16.4412 C   0  0  0  0  0  0  0  0  0  0  0  0
   10.5993   -4.8981   21.6068 C   0  0  0  0  0  0  0  0  0  0  0  0
   10.4258   -3.0106   23.0998 C   0  0  0  0  0  0  0  0  0  0  0  0
   10.2148   -3.4364   25.4200 C   0  0  0  0  0  0  0  0  0  0  0  0
    9.7853   -1.1840   24.4927 C   0  0  0  0  0  0  0  0  0  0  0  0
    5.0276   -8.5227   17.5352 C   0  0  0  0  0  0  0  0  0  0  0  0
    9.8187   -2.0895   25.5800 C   0  0  0  0  0  0  0  0  0  0  0  0
    5.6473   -8.7216   15.3158 C   0  0  0  0  0  0  0  0  0  0  0  0
   10.7581   -3.1233   19.4720 N   0  0  0  0  0  0  0  0  0  0  0  0
    9.9571   -4.0573   16.8866 C   0  0  0  0  0  0  0  0  0  0  0  0
    7.6213   -6.5618   16.0087 C   0  0  0  0  0  0  0  0  0  0  0  0
   10.8583   -2.6527   20.7222 C   0  0  0  0  0  0  0  0  0  0  0  0
   10.6412   -3.5089   21.7936 C   0  0  0  0  0  0  0  0  0  0  0  0
   10.4972   -3.8968   24.1589 C   0  0  0  0  0  0  0  0  0  0  0  0
    5.9260   -8.2736   16.5517 C   0  0  0  0  0  0  0  0  0  0  0  0
    3.8816   -9.1166   17.2493 C   0  0  0  0  0  0  0  0  0  0  0  0
   10.1297   -1.6575   23.2324 C   0  0  0  0  0  0  0  0  0  0  0  0
    9.4684   -1.6929   26.7263 F   0  0  0  0  0  0  0  0  0  0  0  0
    7.7963   -7.7906   17.9837 C   0  0  0  0  0  0  0  0  0  0  0  0
   10.5884   -3.0725   16.7902 O   0  0  0  0  0  0  0  0  0  0  0  0
   10.4323   -5.3494   20.3516 C   0  0  0  0  0  0  0  0  0  0  0  0
    7.1156   -7.5454   16.8218 C   0  0  0  0  0  0  0  0  0  0  0  0
   10.3885   -4.4388   19.2773 C   0  0  0  0  0  0  0  0  0  0  0  0
    4.5160   -9.3822   15.0841 C   0  0  0  0  0  0  0  0  0  0  0  0
  1  3  4  0
  1 24  4  0
  2  6  4  0
  2 15  4  0
  3  5  4  0
  3  6  4  0
  4 21  4  0
  4 29  4  0
  5 15  4  0
  5 28  1  0
  6 16  4  0
  7 18  4  0
  7 26  4  0
  8 18  1  0
  8 19  4  0
  8 22  4  0
  9 12  4  0
  9 19  4  0
 10 12  4  0
 10 22  4  0
 11 20  4  0
 11 21  4  0
 12 23  1  0
 13 20  4  0
 13 29  4  0
 14 17  4  0
 14 28  4  0
 15 25  2  0
 16 27  4  0
 17 18  4  0
 20 27  1  0
 24 27  4  0
 26 28  4  0
M  END
$$$$

 Created by Python create_sdf_string function

 29 33  0  0  0  0  0  0  0  0999 V2000
    8.8270   -7.0288   18.4251 C   0  0  0  0  0  0  0  0  0  0  0  0
    9.1576   -4.6236   15.8860 O   0  0  0  0  0  0  0  0  0  0  0  0
    9.1509   -5.9108   17.7177 C   0  0  0  0  0  0  0  0  0  0  0  0
    3.6373   -9.5349   16.0582 N   0  0  0  0  0  0  0  0  0  0  0  0
    9.9275   -4.8001   18.0438 N   0  0  0  0  0  0  0  0  0  0  0  0
    8.5908   -5.7425   16.4412 C   0  0  0  0  0  0  0  0  0  0  0  0
   10.5993   -4.8981   21.6068 C   0  0  0  0  0  0  0  0  0  0  0  0
   10.4258   -3.0106   23.0998 C   0  0  0  0  0  0  0  0  0  0  0  0
   10.2148   -3.4364   25.4200 C   0  0  0  0  0  0  0  0  0  0  0  0
    9.7853   -1.1840   24.4927 C   0  0  0  0  0  0  0  0  0  0  0  0
    5.0276   -8.5227   17.5352 C   0  0  0  0  0  0  0  0  0  0  0  0
    9.8187   -2.0895   25.5800 C   0  0  0  0  0  0  0  0  0  0  0  0
    5.6473   -8.7216   15.3158 C   0  0  0  0  0  0  0  0  0  0  0  0
   10.7581   -3.1233   19.4720 N   0  0  0  0  0  0  0  0  0  0  0  0
    9.9571   -4.0573   16.8866 C   0  0  0  0  0  0  0  0  0  0  0  0
    7.6213   -6.5618   16.0087 C   0  0  0  0  0  0  0  0  0  0  0  0
   10.8583   -2.6527   20.7222 C   0  0  0  0  0  0  0  0  0  0  0  0
   10.6412   -3.5089   21.7936 C   0  0  0  0  0  0  0  0  0  0  0  0
   10.4972   -3.8968   24.1589 C   0  0  0  0  0  0  0  0  0  0  0  0
    5.9260   -8.2736   16.5517 C   0  0  0  0  0  0  0  0  0  0  0  0
    3.8816   -9.1166   17.2493 C   0  0  0  0  0  0  0  0  0  0  0  0
   10.1297   -1.6575   23.2324 C   0  0  0  0  0  0  0  0  0  0  0  0
    9.4684   -1.6929   26.7263 F   0  0  0  0  0  0  0  0  0  0  0  0
    7.7963   -7.7906   17.9837 C   0  0  0  0  0  0  0  0  0  0  0  0
   10.5884   -3.0725   16.7902 O   0  0  0  0  0  0  0  0  0  0  0  0
   10.4323   -5.3494   20.3516 C   0  0  0  0  0  0  0  0  0  0  0  0
    7.1156   -7.5454   16.8218 C   0  0  0  0  0  0  0  0  0  0  0  0
   10.3885   -4.4388   19.2773 C   0  0  0  0  0  0  0  0  0  0  0  0
    4.5160   -9.3822   15.0841 C   0  0  0  0  0  0  0  0  0  0  0  0
  1  3  4  0
  1 24  4  0
  2  6  4  0
  2 15  4  0
  3  5  4  0
  3  6  4  0
  4 21  4  0
  4 29  4  0
  5 15  4  0
  5 28  1  0
  6 16  4  0
  7 18  4  0
  7 26  4  0
  8 18  1  0
  8 19  4  0
  8 22  4  0
  9 12  4  0
  9 19  4  0
 10 12  4  0
 10 22  4  0
 11 20  4  0
 11 21  4  0
 12 23  1  0
 13 20  4  0
 13 29  4  0
 14 17  4  0
 14 28  4  0
 15 25  2  0
 16 27  4  0
 17 18  4  0
 20 27  1  0
 24 27  4  0
 26 28  4  0
M  END
$$$$

 Created by Python create_sdf_string function

 29 33  0  0  0  0  0  0  0  0999 V2000
    8.8270   -7.0288   18.4251 C   0  0  0  0  0  0  0  0  0  0  0  0
    9.1576   -4.6236   15.8860 O   0  0  0  0  0  0  0  0  0  0  0  0
    9.1509   -5.9108   17.7177 C   0  0  0  0  0  0  0  0  0  0  0  0
    3.6373   -9.5349   16.0582 N   0  0  0  0  0  0  0  0  0  0  0  0
    9.9275   -4.8001   18.0438 N   0  0  0  0  0  0  0  0  0  0  0  0
    8.5908   -5.7425   16.4412 C   0  0  0  0  0  0  0  0  0  0  0  0
   10.5993   -4.8981   21.6068 C   0  0  0  0  0  0  0  0  0  0  0  0
   10.4258   -3.0106   23.0998 C   0  0  0  0  0  0  0  0  0  0  0  0
   10.2148   -3.4364   25.4200 C   0  0  0  0  0  0  0  0  0  0  0  0
    9.7853   -1.1840   24.4927 C   0  0  0  0  0  0  0  0  0  0  0  0
    5.0276   -8.5227   17.5352 C   0  0  0  0  0  0  0  0  0  0  0  0
    9.8187   -2.0895   25.5800 C   0  0  0  0  0  0  0  0  0  0  0  0
    5.6473   -8.7216   15.3158 C   0  0  0  0  0  0  0  0  0  0  0  0
   10.7581   -3.1233   19.4720 N   0  0  0  0  0  0  0  0  0  0  0  0
    9.9571   -4.0573   16.8866 C   0  0  0  0  0  0  0  0  0  0  0  0
    7.6213   -6.5618   16.0087 C   0  0  0  0  0  0  0  0  0  0  0  0
   10.8583   -2.6527   20.7222 C   0  0  0  0  0  0  0  0  0  0  0  0
   10.6412   -3.5089   21.7936 C   0  0  0  0  0  0  0  0  0  0  0  0
   10.4972   -3.8968   24.1589 C   0  0  0  0  0  0  0  0  0  0  0  0
    5.9260   -8.2736   16.5517 C   0  0  0  0  0  0  0  0  0  0  0  0
    3.8816   -9.1166   17.2493 C   0  0  0  0  0  0  0  0  0  0  0  0
   10.1297   -1.6575   23.2324 C   0  0  0  0  0  0  0  0  0  0  0  0
    9.4684   -1.6929   26.7263 F   0  0  0  0  0  0  0  0  0  0  0  0
    7.7963   -7.7906   17.9837 C   0  0  0  0  0  0  0  0  0  0  0  0
   10.5884   -3.0725   16.7902 O   0  0  0  0  0  0  0  0  0  0  0  0
   10.4323   -5.3494   20.3516 C   0  0  0  0  0  0  0  0  0  0  0  0
    7.1156   -7.5454   16.8218 C   0  0  0  0  0  0  0  0  0  0  0  0
   10.3885   -4.4388   19.2773 C   0  0  0  0  0  0  0  0  0  0  0  0
    4.5160   -9.3822   15.0841 C   0  0  0  0  0  0  0  0  0  0  0  0
  1  3  4  0
  1 24  4  0
  2  6  4  0
  2 15  4  0
  3  5  4  0
  3  6  4  0
  4 21  4  0
  4 29  4  0
  5 15  4  0
  5 28  1  0
  6 16  4  0
  7 18  4  0
  7 26  4  0
  8 18  1  0
  8 19  4  0
  8 22  4  0
  9 12  4  0
  9 19  4  0
 10 12  4  0
 10 22  4  0
 11 20  4  0
 11 21  4  0
 12 23  1  0
 13 20  4  0
 13 29  4  0
 14 17  4  0
 14 28  4  0
 15 25  2  0
 16 27  4  0
 17 18  4  0
 20 27  1  0
 24 27  4  0
 26 28  4  0
M  END
$$$$

 Created by Python create_sdf_string function

 29 33  0  0  0  0  0  0  0  0999 V2000
    8.8270   -7.0288   18.4251 C   0  0  0  0  0  0  0  0  0  0  0  0
    9.1576   -4.6236   15.8860 O   0  0  0  0  0  0  0  0  0  0  0  0
    9.1509   -5.9108   17.7177 C   0  0  0  0  0  0  0  0  0  0  0  0
    3.6373   -9.5349   16.0582 N   0  0  0  0  0  0  0  0  0  0  0  0
    9.9275   -4.8001   18.0438 N   0  0  0  0  0  0  0  0  0  0  0  0
    8.5908   -5.7425   16.4412 C   0  0  0  0  0  0  0  0  0  0  0  0
   10.5993   -4.8981   21.6068 C   0  0  0  0  0  0  0  0  0  0  0  0
   10.4258   -3.0106   23.0998 C   0  0  0  0  0  0  0  0  0  0  0  0
   10.2148   -3.4364   25.4200 C   0  0  0  0  0  0  0  0  0  0  0  0
    9.7853   -1.1840   24.4927 C   0  0  0  0  0  0  0  0  0  0  0  0
    5.0276   -8.5227   17.5352 C   0  0  0  0  0  0  0  0  0  0  0  0
    9.8187   -2.0895   25.5800 C   0  0  0  0  0  0  0  0  0  0  0  0
    5.6473   -8.7216   15.3158 C   0  0  0  0  0  0  0  0  0  0  0  0
   10.7581   -3.1233   19.4720 N   0  0  0  0  0  0  0  0  0  0  0  0
    9.9571   -4.0573   16.8866 C   0  0  0  0  0  0  0  0  0  0  0  0
    7.6213   -6.5618   16.0087 C   0  0  0  0  0  0  0  0  0  0  0  0
   10.8583   -2.6527   20.7222 C   0  0  0  0  0  0  0  0  0  0  0  0
   10.6412   -3.5089   21.7936 C   0  0  0  0  0  0  0  0  0  0  0  0
   10.4972   -3.8968   24.1589 C   0  0  0  0  0  0  0  0  0  0  0  0
    5.9260   -8.2736   16.5517 C   0  0  0  0  0  0  0  0  0  0  0  0
    3.8816   -9.1166   17.2493 C   0  0  0  0  0  0  0  0  0  0  0  0
   10.1297   -1.6575   23.2324 C   0  0  0  0  0  0  0  0  0  0  0  0
    9.4684   -1.6929   26.7263 F   0  0  0  0  0  0  0  0  0  0  0  0
    7.7963   -7.7906   17.9837 C   0  0  0  0  0  0  0  0  0  0  0  0
   10.5884   -3.0725   16.7902 O   0  0  0  0  0  0  0  0  0  0  0  0
   10.4323   -5.3494   20.3516 C   0  0  0  0  0  0  0  0  0  0  0  0
    7.1156   -7.5454   16.8218 C   0  0  0  0  0  0  0  0  0  0  0  0
   10.3885   -4.4388   19.2773 C   0  0  0  0  0  0  0  0  0  0  0  0
    4.5160   -9.3822   15.0841 C   0  0  0  0  0  0  0  0  0  0  0  0
  1  3  4  0
  1 24  4  0
  2  6  4  0
  2 15  4  0
  3  5  4  0
  3  6  4  0
  4 21  4  0
  4 29  4  0
  5 15  4  0
  5 28  1  0
  6 16  4  0
  7 18  4  0
  7 26  4  0
  8 18  1  0
  8 19  4  0
  8 22  4  0
  9 12  4  0
  9 19  4  0
 10 12  4  0
 10 22  4  0
 11 20  4  0
 11 21  4  0
 12 23  1  0
 13 20  4  0
 13 29  4  0
 14 17  4  0
 14 28  4  0
 15 25  2  0
 16 27  4  0
 17 18  4  0
 20 27  1  0
 24 27  4  0
 26 28  4  0
M  END
$$$$

 Created by Python create_sdf_string function

 29 33  0  0  0  0  0  0  0  0999 V2000
    8.8270   -7.0288   18.4251 C   0  0  0  0  0  0  0  0  0  0  0  0
    9.1576   -4.6236   15.8860 O   0  0  0  0  0  0  0  0  0  0  0  0
    9.1509   -5.9108   17.7177 C   0  0  0  0  0  0  0  0  0  0  0  0
    3.6373   -9.5349   16.0582 N   0  0  0  0  0  0  0  0  0  0  0  0
    9.9275   -4.8001   18.0438 N   0  0  0  0  0  0  0  0  0  0  0  0
    8.5908   -5.7425   16.4412 C   0  0  0  0  0  0  0  0  0  0  0  0
   10.5993   -4.8981   21.6068 C   0  0  0  0  0  0  0  0  0  0  0  0
   10.4258   -3.0106   23.0998 C   0  0  0  0  0  0  0  0  0  0  0  0
   10.2148   -3.4364   25.4200 C   0  0  0  0  0  0  0  0  0  0  0  0
    9.7853   -1.1840   24.4927 C   0  0  0  0  0  0  0  0  0  0  0  0
    5.0276   -8.5227   17.5352 C   0  0  0  0  0  0  0  0  0  0  0  0
    9.8187   -2.0895   25.5800 C   0  0  0  0  0  0  0  0  0  0  0  0
    5.6473   -8.7216   15.3158 C   0  0  0  0  0  0  0  0  0  0  0  0
   10.7581   -3.1233   19.4720 N   0  0  0  0  0  0  0  0  0  0  0  0
    9.9571   -4.0573   16.8866 C   0  0  0  0  0  0  0  0  0  0  0  0
    7.6213   -6.5618   16.0087 C   0  0  0  0  0  0  0  0  0  0  0  0
   10.8583   -2.6527   20.7222 C   0  0  0  0  0  0  0  0  0  0  0  0
   10.6412   -3.5089   21.7936 C   0  0  0  0  0  0  0  0  0  0  0  0
   10.4972   -3.8968   24.1589 C   0  0  0  0  0  0  0  0  0  0  0  0
    5.9260   -8.2736   16.5517 C   0  0  0  0  0  0  0  0  0  0  0  0
    3.8816   -9.1166   17.2493 C   0  0  0  0  0  0  0  0  0  0  0  0
   10.1297   -1.6575   23.2324 C   0  0  0  0  0  0  0  0  0  0  0  0
    9.4684   -1.6929   26.7263 F   0  0  0  0  0  0  0  0  0  0  0  0
    7.7963   -7.7906   17.9837 C   0  0  0  0  0  0  0  0  0  0  0  0
   10.5884   -3.0725   16.7902 O   0  0  0  0  0  0  0  0  0  0  0  0
   10.4323   -5.3494   20.3516 C   0  0  0  0  0  0  0  0  0  0  0  0
    7.1156   -7.5454   16.8218 C   0  0  0  0  0  0  0  0  0  0  0  0
   10.3885   -4.4388   19.2773 C   0  0  0  0  0  0  0  0  0  0  0  0
    4.5160   -9.3822   15.0841 C   0  0  0  0  0  0  0  0  0  0  0  0
  1  3  4  0
  1 24  4  0
  2  6  4  0
  2 15  4  0
  3  5  4  0
  3  6  4  0
  4 21  4  0
  4 29  4  0
  5 15  4  0
  5 28  1  0
  6 16  4  0
  7 18  4  0
  7 26  4  0
  8 18  1  0
  8 19  4  0
  8 22  4  0
  9 12  4  0
  9 19  4  0
 10 12  4  0
 10 22  4  0
 11 20  4  0
 11 21  4  0
 12 23  1  0
 13 20  4  0
 13 29  4  0
 14 17  4  0
 14 28  4  0
 15 25  2  0
 16 27  4  0
 17 18  4  0
 20 27  1  0
 24 27  4  0
 26 28  4  0
M  END
$$$$

 Created by Python create_sdf_string function

 29 33  0  0  0  0  0  0  0  0999 V2000
    8.8270   -7.0288   18.4251 C   0  0  0  0  0  0  0  0  0  0  0  0
    9.1576   -4.6236   15.8860 O   0  0  0  0  0  0  0  0  0  0  0  0
    9.1509   -5.9108   17.7177 C   0  0  0  0  0  0  0  0  0  0  0  0
    3.6373   -9.5349   16.0582 N   0  0  0  0  0  0  0  0  0  0  0  0
    9.9275   -4.8001   18.0438 N   0  0  0  0  0  0  0  0  0  0  0  0
    8.5908   -5.7425   16.4412 C   0  0  0  0  0  0  0  0  0  0  0  0
   10.5993   -4.8981   21.6068 C   0  0  0  0  0  0  0  0  0  0  0  0
   10.4258   -3.0106   23.0998 C   0  0  0  0  0  0  0  0  0  0  0  0
   10.2148   -3.4364   25.4200 C   0  0  0  0  0  0  0  0  0  0  0  0
    9.7853   -1.1840   24.4927 C   0  0  0  0  0  0  0  0  0  0  0  0
    5.0276   -8.5227   17.5352 C   0  0  0  0  0  0  0  0  0  0  0  0
    9.8187   -2.0895   25.5800 C   0  0  0  0  0  0  0  0  0  0  0  0
    5.6473   -8.7216   15.3158 C   0  0  0  0  0  0  0  0  0  0  0  0
   10.7581   -3.1233   19.4720 N   0  0  0  0  0  0  0  0  0  0  0  0
    9.9571   -4.0573   16.8866 C   0  0  0  0  0  0  0  0  0  0  0  0
    7.6213   -6.5618   16.0087 C   0  0  0  0  0  0  0  0  0  0  0  0
   10.8583   -2.6527   20.7222 C   0  0  0  0  0  0  0  0  0  0  0  0
   10.6412   -3.5089   21.7936 C   0  0  0  0  0  0  0  0  0  0  0  0
   10.4972   -3.8968   24.1589 C   0  0  0  0  0  0  0  0  0  0  0  0
    5.9260   -8.2736   16.5517 C   0  0  0  0  0  0  0  0  0  0  0  0
    3.8816   -9.1166   17.2493 C   0  0  0  0  0  0  0  0  0  0  0  0
   10.1297   -1.6575   23.2324 C   0  0  0  0  0  0  0  0  0  0  0  0
    9.4684   -1.6929   26.7263 F   0  0  0  0  0  0  0  0  0  0  0  0
    7.7963   -7.7906   17.9837 C   0  0  0  0  0  0  0  0  0  0  0  0
   10.5884   -3.0725   16.7902 O   0  0  0  0  0  0  0  0  0  0  0  0
   10.4323   -5.3494   20.3516 C   0  0  0  0  0  0  0  0  0  0  0  0
    7.1156   -7.5454   16.8218 C   0  0  0  0  0  0  0  0  0  0  0  0
   10.3885   -4.4388   19.2773 C   0  0  0  0  0  0  0  0  0  0  0  0
    4.5160   -9.3822   15.0841 C   0  0  0  0  0  0  0  0  0  0  0  0
  1  3  4  0
  1 24  4  0
  2  6  4  0
  2 15  4  0
  3  5  4  0
  3  6  4  0
  4 21  4  0
  4 29  4  0
  5 15  4  0
  5 28  1  0
  6 16  4  0
  7 18  4  0
  7 26  4  0
  8 18  1  0
  8 19  4  0
  8 22  4  0
  9 12  4  0
  9 19  4  0
 10 12  4  0
 10 22  4  0
 11 20  4  0
 11 21  4  0
 12 23  1  0
 13 20  4  0
 13 29  4  0
 14 17  4  0
 14 28  4  0
 15 25  2  0
 16 27  4  0
 17 18  4  0
 20 27  1  0
 24 27  4  0
 26 28  4  0
M  END
$$$$

 Created by Python create_sdf_string function

 29 33  0  0  0  0  0  0  0  0999 V2000
    8.8270   -7.0288   18.4251 C   0  0  0  0  0  0  0  0  0  0  0  0
    9.1576   -4.6236   15.8860 O   0  0  0  0  0  0  0  0  0  0  0  0
    9.1509   -5.9108   17.7177 C   0  0  0  0  0  0  0  0  0  0  0  0
    3.6373   -9.5349   16.0582 N   0  0  0  0  0  0  0  0  0  0  0  0
    9.9275   -4.8001   18.0438 N   0  0  0  0  0  0  0  0  0  0  0  0
    8.5908   -5.7425   16.4412 C   0  0  0  0  0  0  0  0  0  0  0  0
   10.5993   -4.8981   21.6068 C   0  0  0  0  0  0  0  0  0  0  0  0
   10.4258   -3.0106   23.0998 C   0  0  0  0  0  0  0  0  0  0  0  0
   10.2148   -3.4364   25.4200 C   0  0  0  0  0  0  0  0  0  0  0  0
    9.7853   -1.1840   24.4927 C   0  0  0  0  0  0  0  0  0  0  0  0
    5.0276   -8.5227   17.5352 C   0  0  0  0  0  0  0  0  0  0  0  0
    9.8187   -2.0895   25.5800 C   0  0  0  0  0  0  0  0  0  0  0  0
    5.6473   -8.7216   15.3158 C   0  0  0  0  0  0  0  0  0  0  0  0
   10.7581   -3.1233   19.4720 N   0  0  0  0  0  0  0  0  0  0  0  0
    9.9571   -4.0573   16.8866 C   0  0  0  0  0  0  0  0  0  0  0  0
    7.6213   -6.5618   16.0087 C   0  0  0  0  0  0  0  0  0  0  0  0
   10.8583   -2.6527   20.7222 C   0  0  0  0  0  0  0  0  0  0  0  0
   10.6412   -3.5089   21.7936 C   0  0  0  0  0  0  0  0  0  0  0  0
   10.4972   -3.8968   24.1589 C   0  0  0  0  0  0  0  0  0  0  0  0
    5.9260   -8.2736   16.5517 C   0  0  0  0  0  0  0  0  0  0  0  0
    3.8816   -9.1166   17.2493 C   0  0  0  0  0  0  0  0  0  0  0  0
   10.1297   -1.6575   23.2324 C   0  0  0  0  0  0  0  0  0  0  0  0
    9.4684   -1.6929   26.7263 F   0  0  0  0  0  0  0  0  0  0  0  0
    7.7963   -7.7906   17.9837 C   0  0  0  0  0  0  0  0  0  0  0  0
   10.5884   -3.0725   16.7902 O   0  0  0  0  0  0  0  0  0  0  0  0
   10.4323   -5.3494   20.3516 C   0  0  0  0  0  0  0  0  0  0  0  0
    7.1156   -7.5454   16.8218 C   0  0  0  0  0  0  0  0  0  0  0  0
   10.3885   -4.4388   19.2773 C   0  0  0  0  0  0  0  0  0  0  0  0
    4.5160   -9.3822   15.0841 C   0  0  0  0  0  0  0  0  0  0  0  0
  1  3  4  0
  1 24  4  0
  2  6  4  0
  2 15  4  0
  3  5  4  0
  3  6  4  0
  4 21  4  0
  4 29  4  0
  5 15  4  0
  5 28  1  0
  6 16  4  0
  7 18  4  0
  7 26  4  0
  8 18  1  0
  8 19  4  0
  8 22  4  0
  9 12  4  0
  9 19  4  0
 10 12  4  0
 10 22  4  0
 11 20  4  0
 11 21  4  0
 12 23  1  0
 13 20  4  0
 13 29  4  0
 14 17  4  0
 14 28  4  0
 15 25  2  0
 16 27  4  0
 17 18  4  0
 20 27  1  0
 24 27  4  0
 26 28  4  0
M  END
$$$$

 Created by Python create_sdf_string function

 29 33  0  0  0  0  0  0  0  0999 V2000
    8.8270   -7.0288   18.4251 C   0  0  0  0  0  0  0  0  0  0  0  0
    9.1576   -4.6236   15.8860 O   0  0  0  0  0  0  0  0  0  0  0  0
    9.1509   -5.9108   17.7177 C   0  0  0  0  0  0  0  0  0  0  0  0
    3.6373   -9.5349   16.0582 N   0  0  0  0  0  0  0  0  0  0  0  0
    9.9275   -4.8001   18.0438 N   0  0  0  0  0  0  0  0  0  0  0  0
    8.5908   -5.7425   16.4412 C   0  0  0  0  0  0  0  0  0  0  0  0
   10.5993   -4.8981   21.6068 C   0  0  0  0  0  0  0  0  0  0  0  0
   10.4258   -3.0106   23.0998 C   0  0  0  0  0  0  0  0  0  0  0  0
   10.2148   -3.4364   25.4200 C   0  0  0  0  0  0  0  0  0  0  0  0
    9.7853   -1.1840   24.4927 C   0  0  0  0  0  0  0  0  0  0  0  0
    5.0276   -8.5227   17.5352 C   0  0  0  0  0  0  0  0  0  0  0  0
    9.8187   -2.0895   25.5800 C   0  0  0  0  0  0  0  0  0  0  0  0
    5.6473   -8.7216   15.3158 C   0  0  0  0  0  0  0  0  0  0  0  0
   10.7581   -3.1233   19.4720 N   0  0  0  0  0  0  0  0  0  0  0  0
    9.9571   -4.0573   16.8866 C   0  0  0  0  0  0  0  0  0  0  0  0
    7.6213   -6.5618   16.0087 C   0  0  0  0  0  0  0  0  0  0  0  0
   10.8583   -2.6527   20.7222 C   0  0  0  0  0  0  0  0  0  0  0  0
   10.6412   -3.5089   21.7936 C   0  0  0  0  0  0  0  0  0  0  0  0
   10.4972   -3.8968   24.1589 C   0  0  0  0  0  0  0  0  0  0  0  0
    5.9260   -8.2736   16.5517 C   0  0  0  0  0  0  0  0  0  0  0  0
    3.8816   -9.1166   17.2493 C   0  0  0  0  0  0  0  0  0  0  0  0
   10.1297   -1.6575   23.2324 C   0  0  0  0  0  0  0  0  0  0  0  0
    9.4684   -1.6929   26.7263 F   0  0  0  0  0  0  0  0  0  0  0  0
    7.7963   -7.7906   17.9837 C   0  0  0  0  0  0  0  0  0  0  0  0
   10.5884   -3.0725   16.7902 O   0  0  0  0  0  0  0  0  0  0  0  0
   10.4323   -5.3494   20.3516 C   0  0  0  0  0  0  0  0  0  0  0  0
    7.1156   -7.5454   16.8218 C   0  0  0  0  0  0  0  0  0  0  0  0
   10.3885   -4.4388   19.2773 C   0  0  0  0  0  0  0  0  0  0  0  0
    4.5160   -9.3822   15.0841 C   0  0  0  0  0  0  0  0  0  0  0  0
  1  3  4  0
  1 24  4  0
  2  6  4  0
  2 15  4  0
  3  5  4  0
  3  6  4  0
  4 21  4  0
  4 29  4  0
  5 15  4  0
  5 28  1  0
  6 16  4  0
  7 18  4  0
  7 26  4  0
  8 18  1  0
  8 19  4  0
  8 22  4  0
  9 12  4  0
  9 19  4  0
 10 12  4  0
 10 22  4  0
 11 20  4  0
 11 21  4  0
 12 23  1  0
 13 20  4  0
 13 29  4  0
 14 17  4  0
 14 28  4  0
 15 25  2  0
 16 27  4  0
 17 18  4  0
 20 27  1  0
 24 27  4  0
 26 28  4  0
M  END
$$$$

 Created by Python create_sdf_string function

 29 33  0  0  0  0  0  0  0  0999 V2000
    8.8270   -7.0288   18.4251 C   0  0  0  0  0  0  0  0  0  0  0  0
    9.1576   -4.6236   15.8860 O   0  0  0  0  0  0  0  0  0  0  0  0
    9.1509   -5.9108   17.7177 C   0  0  0  0  0  0  0  0  0  0  0  0
    3.6373   -9.5349   16.0582 N   0  0  0  0  0  0  0  0  0  0  0  0
    9.9275   -4.8001   18.0438 N   0  0  0  0  0  0  0  0  0  0  0  0
    8.5908   -5.7425   16.4412 C   0  0  0  0  0  0  0  0  0  0  0  0
   10.5993   -4.8981   21.6068 C   0  0  0  0  0  0  0  0  0  0  0  0
   10.4258   -3.0106   23.0998 C   0  0  0  0  0  0  0  0  0  0  0  0
   10.2148   -3.4364   25.4200 C   0  0  0  0  0  0  0  0  0  0  0  0
    9.7853   -1.1840   24.4927 C   0  0  0  0  0  0  0  0  0  0  0  0
    5.0276   -8.5227   17.5352 C   0  0  0  0  0  0  0  0  0  0  0  0
    9.8187   -2.0895   25.5800 C   0  0  0  0  0  0  0  0  0  0  0  0
    5.6473   -8.7216   15.3158 C   0  0  0  0  0  0  0  0  0  0  0  0
   10.7581   -3.1233   19.4720 N   0  0  0  0  0  0  0  0  0  0  0  0
    9.9571   -4.0573   16.8866 C   0  0  0  0  0  0  0  0  0  0  0  0
    7.6213   -6.5618   16.0087 C   0  0  0  0  0  0  0  0  0  0  0  0
   10.8583   -2.6527   20.7222 C   0  0  0  0  0  0  0  0  0  0  0  0
   10.6412   -3.5089   21.7936 C   0  0  0  0  0  0  0  0  0  0  0  0
   10.4972   -3.8968   24.1589 C   0  0  0  0  0  0  0  0  0  0  0  0
    5.9260   -8.2736   16.5517 C   0  0  0  0  0  0  0  0  0  0  0  0
    3.8816   -9.1166   17.2493 C   0  0  0  0  0  0  0  0  0  0  0  0
   10.1297   -1.6575   23.2324 C   0  0  0  0  0  0  0  0  0  0  0  0
    9.4684   -1.6929   26.7263 F   0  0  0  0  0  0  0  0  0  0  0  0
    7.7963   -7.7906   17.9837 C   0  0  0  0  0  0  0  0  0  0  0  0
   10.5884   -3.0725   16.7902 O   0  0  0  0  0  0  0  0  0  0  0  0
   10.4323   -5.3494   20.3516 C   0  0  0  0  0  0  0  0  0  0  0  0
    7.1156   -7.5454   16.8218 C   0  0  0  0  0  0  0  0  0  0  0  0
   10.3885   -4.4388   19.2773 C   0  0  0  0  0  0  0  0  0  0  0  0
    4.5160   -9.3822   15.0841 C   0  0  0  0  0  0  0  0  0  0  0  0
  1  3  4  0
  1 24  4  0
  2  6  4  0
  2 15  4  0
  3  5  4  0
  3  6  4  0
  4 21  4  0
  4 29  4  0
  5 15  4  0
  5 28  1  0
  6 16  4  0
  7 18  4  0
  7 26  4  0
  8 18  1  0
  8 19  4  0
  8 22  4  0
  9 12  4  0
  9 19  4  0
 10 12  4  0
 10 22  4  0
 11 20  4  0
 11 21  4  0
 12 23  1  0
 13 20  4  0
 13 29  4  0
 14 17  4  0
 14 28  4  0
 15 25  2  0
 16 27  4  0
 17 18  4  0
 20 27  1  0
 24 27  4  0
 26 28  4  0
M  END
$$$$

 Created by Python create_sdf_string function

 29 33  0  0  0  0  0  0  0  0999 V2000
    8.8270   -7.0288   18.4251 C   0  0  0  0  0  0  0  0  0  0  0  0
    9.1576   -4.6236   15.8860 O   0  0  0  0  0  0  0  0  0  0  0  0
    9.1509   -5.9108   17.7177 C   0  0  0  0  0  0  0  0  0  0  0  0
    3.6373   -9.5349   16.0582 N   0  0  0  0  0  0  0  0  0  0  0  0
    9.9275   -4.8001   18.0438 N   0  0  0  0  0  0  0  0  0  0  0  0
    8.5908   -5.7425   16.4412 C   0  0  0  0  0  0  0  0  0  0  0  0
   10.5993   -4.8981   21.6068 C   0  0  0  0  0  0  0  0  0  0  0  0
   10.4258   -3.0106   23.0998 C   0  0  0  0  0  0  0  0  0  0  0  0
   10.2148   -3.4364   25.4200 C   0  0  0  0  0  0  0  0  0  0  0  0
    9.7853   -1.1840   24.4927 C   0  0  0  0  0  0  0  0  0  0  0  0
    5.0276   -8.5227   17.5352 C   0  0  0  0  0  0  0  0  0  0  0  0
    9.8187   -2.0895   25.5800 C   0  0  0  0  0  0  0  0  0  0  0  0
    5.6473   -8.7216   15.3158 C   0  0  0  0  0  0  0  0  0  0  0  0
   10.7581   -3.1233   19.4720 N   0  0  0  0  0  0  0  0  0  0  0  0
    9.9571   -4.0573   16.8866 C   0  0  0  0  0  0  0  0  0  0  0  0
    7.6213   -6.5618   16.0087 C   0  0  0  0  0  0  0  0  0  0  0  0
   10.8583   -2.6527   20.7222 C   0  0  0  0  0  0  0  0  0  0  0  0
   10.6412   -3.5089   21.7936 C   0  0  0  0  0  0  0  0  0  0  0  0
   10.4972   -3.8968   24.1589 C   0  0  0  0  0  0  0  0  0  0  0  0
    5.9260   -8.2736   16.5517 C   0  0  0  0  0  0  0  0  0  0  0  0
    3.8816   -9.1166   17.2493 C   0  0  0  0  0  0  0  0  0  0  0  0
   10.1297   -1.6575   23.2324 C   0  0  0  0  0  0  0  0  0  0  0  0
    9.4684   -1.6929   26.7263 F   0  0  0  0  0  0  0  0  0  0  0  0
    7.7963   -7.7906   17.9837 C   0  0  0  0  0  0  0  0  0  0  0  0
   10.5884   -3.0725   16.7902 O   0  0  0  0  0  0  0  0  0  0  0  0
   10.4323   -5.3494   20.3516 C   0  0  0  0  0  0  0  0  0  0  0  0
    7.1156   -7.5454   16.8218 C   0  0  0  0  0  0  0  0  0  0  0  0
   10.3885   -4.4388   19.2773 C   0  0  0  0  0  0  0  0  0  0  0  0
    4.5160   -9.3822   15.0841 C   0  0  0  0  0  0  0  0  0  0  0  0
  1  3  4  0
  1 24  4  0
  2  6  4  0
  2 15  4  0
  3  5  4  0
  3  6  4  0
  4 21  4  0
  4 29  4  0
  5 15  4  0
  5 28  1  0
  6 16  4  0
  7 18  4  0
  7 26  4  0
  8 18  1  0
  8 19  4  0
  8 22  4  0
  9 12  4  0
  9 19  4  0
 10 12  4  0
 10 22  4  0
 11 20  4  0
 11 21  4  0
 12 23  1  0
 13 20  4  0
 13 29  4  0
 14 17  4  0
 14 28  4  0
 15 25  2  0
 16 27  4  0
 17 18  4  0
 20 27  1  0
 24 27  4  0
 26 28  4  0
M  END
$$$$

 Created by Python create_sdf_string function

 29 33  0  0  0  0  0  0  0  0999 V2000
    8.8270   -7.0288   18.4251 C   0  0  0  0  0  0  0  0  0  0  0  0
    9.1576   -4.6236   15.8860 O   0  0  0  0  0  0  0  0  0  0  0  0
    9.1509   -5.9108   17.7177 C   0  0  0  0  0  0  0  0  0  0  0  0
    3.6373   -9.5349   16.0582 N   0  0  0  0  0  0  0  0  0  0  0  0
    9.9275   -4.8001   18.0438 N   0  0  0  0  0  0  0  0  0  0  0  0
    8.5908   -5.7425   16.4412 C   0  0  0  0  0  0  0  0  0  0  0  0
   10.5993   -4.8981   21.6068 C   0  0  0  0  0  0  0  0  0  0  0  0
   10.4258   -3.0106   23.0998 C   0  0  0  0  0  0  0  0  0  0  0  0
   10.2148   -3.4364   25.4200 C   0  0  0  0  0  0  0  0  0  0  0  0
    9.7853   -1.1840   24.4927 C   0  0  0  0  0  0  0  0  0  0  0  0
    5.0276   -8.5227   17.5352 C   0  0  0  0  0  0  0  0  0  0  0  0
    9.8187   -2.0895   25.5800 C   0  0  0  0  0  0  0  0  0  0  0  0
    5.6473   -8.7216   15.3158 C   0  0  0  0  0  0  0  0  0  0  0  0
   10.7581   -3.1233   19.4720 N   0  0  0  0  0  0  0  0  0  0  0  0
    9.9571   -4.0573   16.8866 C   0  0  0  0  0  0  0  0  0  0  0  0
    7.6213   -6.5618   16.0087 C   0  0  0  0  0  0  0  0  0  0  0  0
   10.8583   -2.6527   20.7222 C   0  0  0  0  0  0  0  0  0  0  0  0
   10.6412   -3.5089   21.7936 C   0  0  0  0  0  0  0  0  0  0  0  0
   10.4972   -3.8968   24.1589 C   0  0  0  0  0  0  0  0  0  0  0  0
    5.9260   -8.2736   16.5517 C   0  0  0  0  0  0  0  0  0  0  0  0
    3.8816   -9.1166   17.2493 C   0  0  0  0  0  0  0  0  0  0  0  0
   10.1297   -1.6575   23.2324 C   0  0  0  0  0  0  0  0  0  0  0  0
    9.4684   -1.6929   26.7263 F   0  0  0  0  0  0  0  0  0  0  0  0
    7.7963   -7.7906   17.9837 C   0  0  0  0  0  0  0  0  0  0  0  0
   10.5884   -3.0725   16.7902 O   0  0  0  0  0  0  0  0  0  0  0  0
   10.4323   -5.3494   20.3516 C   0  0  0  0  0  0  0  0  0  0  0  0
    7.1156   -7.5454   16.8218 C   0  0  0  0  0  0  0  0  0  0  0  0
   10.3885   -4.4388   19.2773 C   0  0  0  0  0  0  0  0  0  0  0  0
    4.5160   -9.3822   15.0841 C   0  0  0  0  0  0  0  0  0  0  0  0
  1  3  4  0
  1 24  4  0
  2  6  4  0
  2 15  4  0
  3  5  4  0
  3  6  4  0
  4 21  4  0
  4 29  4  0
  5 15  4  0
  5 28  1  0
  6 16  4  0
  7 18  4  0
  7 26  4  0
  8 18  1  0
  8 19  4  0
  8 22  4  0
  9 12  4  0
  9 19  4  0
 10 12  4  0
 10 22  4  0
 11 20  4  0
 11 21  4  0
 12 23  1  0
 13 20  4  0
 13 29  4  0
 14 17  4  0
 14 28  4  0
 15 25  2  0
 16 27  4  0
 17 18  4  0
 20 27  1  0
 24 27  4  0
 26 28  4  0
M  END
$$$$

 Created by Python create_sdf_string function

 29 33  0  0  0  0  0  0  0  0999 V2000
    8.8270   -7.0288   18.4251 C   0  0  0  0  0  0  0  0  0  0  0  0
    9.1576   -4.6236   15.8860 O   0  0  0  0  0  0  0  0  0  0  0  0
    9.1509   -5.9108   17.7177 C   0  0  0  0  0  0  0  0  0  0  0  0
    3.6373   -9.5349   16.0582 N   0  0  0  0  0  0  0  0  0  0  0  0
    9.9275   -4.8001   18.0438 N   0  0  0  0  0  0  0  0  0  0  0  0
    8.5908   -5.7425   16.4412 C   0  0  0  0  0  0  0  0  0  0  0  0
   10.5993   -4.8981   21.6068 C   0  0  0  0  0  0  0  0  0  0  0  0
   10.4258   -3.0106   23.0998 C   0  0  0  0  0  0  0  0  0  0  0  0
   10.2148   -3.4364   25.4200 C   0  0  0  0  0  0  0  0  0  0  0  0
    9.7853   -1.1840   24.4927 C   0  0  0  0  0  0  0  0  0  0  0  0
    5.0276   -8.5227   17.5352 C   0  0  0  0  0  0  0  0  0  0  0  0
    9.8187   -2.0895   25.5800 C   0  0  0  0  0  0  0  0  0  0  0  0
    5.6473   -8.7216   15.3158 C   0  0  0  0  0  0  0  0  0  0  0  0
   10.7581   -3.1233   19.4720 N   0  0  0  0  0  0  0  0  0  0  0  0
    9.9571   -4.0573   16.8866 C   0  0  0  0  0  0  0  0  0  0  0  0
    7.6213   -6.5618   16.0087 C   0  0  0  0  0  0  0  0  0  0  0  0
   10.8583   -2.6527   20.7222 C   0  0  0  0  0  0  0  0  0  0  0  0
   10.6412   -3.5089   21.7936 C   0  0  0  0  0  0  0  0  0  0  0  0
   10.4972   -3.8968   24.1589 C   0  0  0  0  0  0  0  0  0  0  0  0
    5.9260   -8.2736   16.5517 C   0  0  0  0  0  0  0  0  0  0  0  0
    3.8816   -9.1166   17.2493 C   0  0  0  0  0  0  0  0  0  0  0  0
   10.1297   -1.6575   23.2324 C   0  0  0  0  0  0  0  0  0  0  0  0
    9.4684   -1.6929   26.7263 F   0  0  0  0  0  0  0  0  0  0  0  0
    7.7963   -7.7906   17.9837 C   0  0  0  0  0  0  0  0  0  0  0  0
   10.5884   -3.0725   16.7902 O   0  0  0  0  0  0  0  0  0  0  0  0
   10.4323   -5.3494   20.3516 C   0  0  0  0  0  0  0  0  0  0  0  0
    7.1156   -7.5454   16.8218 C   0  0  0  0  0  0  0  0  0  0  0  0
   10.3885   -4.4388   19.2773 C   0  0  0  0  0  0  0  0  0  0  0  0
    4.5160   -9.3822   15.0841 C   0  0  0  0  0  0  0  0  0  0  0  0
  1  3  4  0
  1 24  4  0
  2  6  4  0
  2 15  4  0
  3  5  4  0
  3  6  4  0
  4 21  4  0
  4 29  4  0
  5 15  4  0
  5 28  1  0
  6 16  4  0
  7 18  4  0
  7 26  4  0
  8 18  1  0
  8 19  4  0
  8 22  4  0
  9 12  4  0
  9 19  4  0
 10 12  4  0
 10 22  4  0
 11 20  4  0
 11 21  4  0
 12 23  1  0
 13 20  4  0
 13 29  4  0
 14 17  4  0
 14 28  4  0
 15 25  2  0
 16 27  4  0
 17 18  4  0
 20 27  1  0
 24 27  4  0
 26 28  4  0
M  END
$$$$

 Created by Python create_sdf_string function

 29 33  0  0  0  0  0  0  0  0999 V2000
    8.8270   -7.0288   18.4251 C   0  0  0  0  0  0  0  0  0  0  0  0
    9.1576   -4.6236   15.8860 O   0  0  0  0  0  0  0  0  0  0  0  0
    9.1509   -5.9108   17.7177 C   0  0  0  0  0  0  0  0  0  0  0  0
    3.6373   -9.5349   16.0582 N   0  0  0  0  0  0  0  0  0  0  0  0
    9.9275   -4.8001   18.0438 N   0  0  0  0  0  0  0  0  0  0  0  0
    8.5908   -5.7425   16.4412 C   0  0  0  0  0  0  0  0  0  0  0  0
   10.5993   -4.8981   21.6068 C   0  0  0  0  0  0  0  0  0  0  0  0
   10.4258   -3.0106   23.0998 C   0  0  0  0  0  0  0  0  0  0  0  0
   10.2148   -3.4364   25.4200 C   0  0  0  0  0  0  0  0  0  0  0  0
    9.7853   -1.1840   24.4927 C   0  0  0  0  0  0  0  0  0  0  0  0
    5.0276   -8.5227   17.5352 C   0  0  0  0  0  0  0  0  0  0  0  0
    9.8187   -2.0895   25.5800 C   0  0  0  0  0  0  0  0  0  0  0  0
    5.6473   -8.7216   15.3158 C   0  0  0  0  0  0  0  0  0  0  0  0
   10.7581   -3.1233   19.4720 N   0  0  0  0  0  0  0  0  0  0  0  0
    9.9571   -4.0573   16.8866 C   0  0  0  0  0  0  0  0  0  0  0  0
    7.6213   -6.5618   16.0087 C   0  0  0  0  0  0  0  0  0  0  0  0
   10.8583   -2.6527   20.7222 C   0  0  0  0  0  0  0  0  0  0  0  0
   10.6412   -3.5089   21.7936 C   0  0  0  0  0  0  0  0  0  0  0  0
   10.4972   -3.8968   24.1589 C   0  0  0  0  0  0  0  0  0  0  0  0
    5.9260   -8.2736   16.5517 C   0  0  0  0  0  0  0  0  0  0  0  0
    3.8816   -9.1166   17.2493 C   0  0  0  0  0  0  0  0  0  0  0  0
   10.1297   -1.6575   23.2324 C   0  0  0  0  0  0  0  0  0  0  0  0
    9.4684   -1.6929   26.7263 F   0  0  0  0  0  0  0  0  0  0  0  0
    7.7963   -7.7906   17.9837 C   0  0  0  0  0  0  0  0  0  0  0  0
   10.5884   -3.0725   16.7902 O   0  0  0  0  0  0  0  0  0  0  0  0
   10.4323   -5.3494   20.3516 C   0  0  0  0  0  0  0  0  0  0  0  0
    7.1156   -7.5454   16.8218 C   0  0  0  0  0  0  0  0  0  0  0  0
   10.3885   -4.4388   19.2773 C   0  0  0  0  0  0  0  0  0  0  0  0
    4.5160   -9.3822   15.0841 C   0  0  0  0  0  0  0  0  0  0  0  0
  1  3  4  0
  1 24  4  0
  2  6  4  0
  2 15  4  0
  3  5  4  0
  3  6  4  0
  4 21  4  0
  4 29  4  0
  5 15  4  0
  5 28  1  0
  6 16  4  0
  7 18  4  0
  7 26  4  0
  8 18  1  0
  8 19  4  0
  8 22  4  0
  9 12  4  0
  9 19  4  0
 10 12  4  0
 10 22  4  0
 11 20  4  0
 11 21  4  0
 12 23  1  0
 13 20  4  0
 13 29  4  0
 14 17  4  0
 14 28  4  0
 15 25  2  0
 16 27  4  0
 17 18  4  0
 20 27  1  0
 24 27  4  0
 26 28  4  0
M  END
$$$$

 Created by Python create_sdf_string function

 29 33  0  0  0  0  0  0  0  0999 V2000
    8.8270   -7.0288   18.4251 C   0  0  0  0  0  0  0  0  0  0  0  0
    9.1576   -4.6236   15.8860 O   0  0  0  0  0  0  0  0  0  0  0  0
    9.1509   -5.9108   17.7177 C   0  0  0  0  0  0  0  0  0  0  0  0
    3.6373   -9.5349   16.0582 N   0  0  0  0  0  0  0  0  0  0  0  0
    9.9275   -4.8001   18.0438 N   0  0  0  0  0  0  0  0  0  0  0  0
    8.5908   -5.7425   16.4412 C   0  0  0  0  0  0  0  0  0  0  0  0
   10.5993   -4.8981   21.6068 C   0  0  0  0  0  0  0  0  0  0  0  0
   10.4258   -3.0106   23.0998 C   0  0  0  0  0  0  0  0  0  0  0  0
   10.2148   -3.4364   25.4200 C   0  0  0  0  0  0  0  0  0  0  0  0
    9.7853   -1.1840   24.4927 C   0  0  0  0  0  0  0  0  0  0  0  0
    5.0276   -8.5227   17.5352 C   0  0  0  0  0  0  0  0  0  0  0  0
    9.8187   -2.0895   25.5800 C   0  0  0  0  0  0  0  0  0  0  0  0
    5.6473   -8.7216   15.3158 C   0  0  0  0  0  0  0  0  0  0  0  0
   10.7581   -3.1233   19.4720 N   0  0  0  0  0  0  0  0  0  0  0  0
    9.9571   -4.0573   16.8866 C   0  0  0  0  0  0  0  0  0  0  0  0
    7.6213   -6.5618   16.0087 C   0  0  0  0  0  0  0  0  0  0  0  0
   10.8583   -2.6527   20.7222 C   0  0  0  0  0  0  0  0  0  0  0  0
   10.6412   -3.5089   21.7936 C   0  0  0  0  0  0  0  0  0  0  0  0
   10.4972   -3.8968   24.1589 C   0  0  0  0  0  0  0  0  0  0  0  0
    5.9260   -8.2736   16.5517 C   0  0  0  0  0  0  0  0  0  0  0  0
    3.8816   -9.1166   17.2493 C   0  0  0  0  0  0  0  0  0  0  0  0
   10.1297   -1.6575   23.2324 C   0  0  0  0  0  0  0  0  0  0  0  0
    9.4684   -1.6929   26.7263 F   0  0  0  0  0  0  0  0  0  0  0  0
    7.7963   -7.7906   17.9837 C   0  0  0  0  0  0  0  0  0  0  0  0
   10.5884   -3.0725   16.7902 O   0  0  0  0  0  0  0  0  0  0  0  0
   10.4323   -5.3494   20.3516 C   0  0  0  0  0  0  0  0  0  0  0  0
    7.1156   -7.5454   16.8218 C   0  0  0  0  0  0  0  0  0  0  0  0
   10.3885   -4.4388   19.2773 C   0  0  0  0  0  0  0  0  0  0  0  0
    4.5160   -9.3822   15.0841 C   0  0  0  0  0  0  0  0  0  0  0  0
  1  3  4  0
  1 24  4  0
  2  6  4  0
  2 15  4  0
  3  5  4  0
  3  6  4  0
  4 21  4  0
  4 29  4  0
  5 15  4  0
  5 28  1  0
  6 16  4  0
  7 18  4  0
  7 26  4  0
  8 18  1  0
  8 19  4  0
  8 22  4  0
  9 12  4  0
  9 19  4  0
 10 12  4  0
 10 22  4  0
 11 20  4  0
 11 21  4  0
 12 23  1  0
 13 20  4  0
 13 29  4  0
 14 17  4  0
 14 28  4  0
 15 25  2  0
 16 27  4  0
 17 18  4  0
 20 27  1  0
 24 27  4  0
 26 28  4  0
M  END
$$$$

 Created by Python create_sdf_string function

 29 33  0  0  0  0  0  0  0  0999 V2000
    8.8270   -7.0288   18.4251 C   0  0  0  0  0  0  0  0  0  0  0  0
    9.1576   -4.6236   15.8860 O   0  0  0  0  0  0  0  0  0  0  0  0
    9.1509   -5.9108   17.7177 C   0  0  0  0  0  0  0  0  0  0  0  0
    3.6373   -9.5349   16.0582 N   0  0  0  0  0  0  0  0  0  0  0  0
    9.9275   -4.8001   18.0438 N   0  0  0  0  0  0  0  0  0  0  0  0
    8.5908   -5.7425   16.4412 C   0  0  0  0  0  0  0  0  0  0  0  0
   10.5993   -4.8981   21.6068 C   0  0  0  0  0  0  0  0  0  0  0  0
   10.4258   -3.0106   23.0998 C   0  0  0  0  0  0  0  0  0  0  0  0
   10.2148   -3.4364   25.4200 C   0  0  0  0  0  0  0  0  0  0  0  0
    9.7853   -1.1840   24.4927 C   0  0  0  0  0  0  0  0  0  0  0  0
    5.0276   -8.5227   17.5352 C   0  0  0  0  0  0  0  0  0  0  0  0
    9.8187   -2.0895   25.5800 C   0  0  0  0  0  0  0  0  0  0  0  0
    5.6473   -8.7216   15.3158 C   0  0  0  0  0  0  0  0  0  0  0  0
   10.7581   -3.1233   19.4720 N   0  0  0  0  0  0  0  0  0  0  0  0
    9.9571   -4.0573   16.8866 C   0  0  0  0  0  0  0  0  0  0  0  0
    7.6213   -6.5618   16.0087 C   0  0  0  0  0  0  0  0  0  0  0  0
   10.8583   -2.6527   20.7222 C   0  0  0  0  0  0  0  0  0  0  0  0
   10.6412   -3.5089   21.7936 C   0  0  0  0  0  0  0  0  0  0  0  0
   10.4972   -3.8968   24.1589 C   0  0  0  0  0  0  0  0  0  0  0  0
    5.9260   -8.2736   16.5517 C   0  0  0  0  0  0  0  0  0  0  0  0
    3.8816   -9.1166   17.2493 C   0  0  0  0  0  0  0  0  0  0  0  0
   10.1297   -1.6575   23.2324 C   0  0  0  0  0  0  0  0  0  0  0  0
    9.4684   -1.6929   26.7263 F   0  0  0  0  0  0  0  0  0  0  0  0
    7.7963   -7.7906   17.9837 C   0  0  0  0  0  0  0  0  0  0  0  0
   10.5884   -3.0725   16.7902 O   0  0  0  0  0  0  0  0  0  0  0  0
   10.4323   -5.3494   20.3516 C   0  0  0  0  0  0  0  0  0  0  0  0
    7.1156   -7.5454   16.8218 C   0  0  0  0  0  0  0  0  0  0  0  0
   10.3885   -4.4388   19.2773 C   0  0  0  0  0  0  0  0  0  0  0  0
    4.5160   -9.3822   15.0841 C   0  0  0  0  0  0  0  0  0  0  0  0
  1  3  4  0
  1 24  4  0
  2  6  4  0
  2 15  4  0
  3  5  4  0
  3  6  4  0
  4 21  4  0
  4 29  4  0
  5 15  4  0
  5 28  1  0
  6 16  4  0
  7 18  4  0
  7 26  4  0
  8 18  1  0
  8 19  4  0
  8 22  4  0
  9 12  4  0
  9 19  4  0
 10 12  4  0
 10 22  4  0
 11 20  4  0
 11 21  4  0
 12 23  1  0
 13 20  4  0
 13 29  4  0
 14 17  4  0
 14 28  4  0
 15 25  2  0
 16 27  4  0
 17 18  4  0
 20 27  1  0
 24 27  4  0
 26 28  4  0
M  END
$$$$

 Created by Python create_sdf_string function

 29 33  0  0  0  0  0  0  0  0999 V2000
    8.8270   -7.0288   18.4251 C   0  0  0  0  0  0  0  0  0  0  0  0
    9.1576   -4.6236   15.8860 O   0  0  0  0  0  0  0  0  0  0  0  0
    9.1509   -5.9108   17.7177 C   0  0  0  0  0  0  0  0  0  0  0  0
    3.6373   -9.5349   16.0582 N   0  0  0  0  0  0  0  0  0  0  0  0
    9.9275   -4.8001   18.0438 N   0  0  0  0  0  0  0  0  0  0  0  0
    8.5908   -5.7425   16.4412 C   0  0  0  0  0  0  0  0  0  0  0  0
   10.5993   -4.8981   21.6068 C   0  0  0  0  0  0  0  0  0  0  0  0
   10.4258   -3.0106   23.0998 C   0  0  0  0  0  0  0  0  0  0  0  0
   10.2148   -3.4364   25.4200 C   0  0  0  0  0  0  0  0  0  0  0  0
    9.7853   -1.1840   24.4927 C   0  0  0  0  0  0  0  0  0  0  0  0
    5.0276   -8.5227   17.5352 C   0  0  0  0  0  0  0  0  0  0  0  0
    9.8187   -2.0895   25.5800 C   0  0  0  0  0  0  0  0  0  0  0  0
    5.6473   -8.7216   15.3158 C   0  0  0  0  0  0  0  0  0  0  0  0
   10.7581   -3.1233   19.4720 N   0  0  0  0  0  0  0  0  0  0  0  0
    9.9571   -4.0573   16.8866 C   0  0  0  0  0  0  0  0  0  0  0  0
    7.6213   -6.5618   16.0087 C   0  0  0  0  0  0  0  0  0  0  0  0
   10.8583   -2.6527   20.7222 C   0  0  0  0  0  0  0  0  0  0  0  0
   10.6412   -3.5089   21.7936 C   0  0  0  0  0  0  0  0  0  0  0  0
   10.4972   -3.8968   24.1589 C   0  0  0  0  0  0  0  0  0  0  0  0
    5.9260   -8.2736   16.5517 C   0  0  0  0  0  0  0  0  0  0  0  0
    3.8816   -9.1166   17.2493 C   0  0  0  0  0  0  0  0  0  0  0  0
   10.1297   -1.6575   23.2324 C   0  0  0  0  0  0  0  0  0  0  0  0
    9.4684   -1.6929   26.7263 F   0  0  0  0  0  0  0  0  0  0  0  0
    7.7963   -7.7906   17.9837 C   0  0  0  0  0  0  0  0  0  0  0  0
   10.5884   -3.0725   16.7902 O   0  0  0  0  0  0  0  0  0  0  0  0
   10.4323   -5.3494   20.3516 C   0  0  0  0  0  0  0  0  0  0  0  0
    7.1156   -7.5454   16.8218 C   0  0  0  0  0  0  0  0  0  0  0  0
   10.3885   -4.4388   19.2773 C   0  0  0  0  0  0  0  0  0  0  0  0
    4.5160   -9.3822   15.0841 C   0  0  0  0  0  0  0  0  0  0  0  0
  1  3  4  0
  1 24  4  0
  2  6  4  0
  2 15  4  0
  3  5  4  0
  3  6  4  0
  4 21  4  0
  4 29  4  0
  5 15  4  0
  5 28  1  0
  6 16  4  0
  7 18  4  0
  7 26  4  0
  8 18  1  0
  8 19  4  0
  8 22  4  0
  9 12  4  0
  9 19  4  0
 10 12  4  0
 10 22  4  0
 11 20  4  0
 11 21  4  0
 12 23  1  0
 13 20  4  0
 13 29  4  0
 14 17  4  0
 14 28  4  0
 15 25  2  0
 16 27  4  0
 17 18  4  0
 20 27  1  0
 24 27  4  0
 26 28  4  0
M  END
$$$$

 Created by Python create_sdf_string function

 29 33  0  0  0  0  0  0  0  0999 V2000
    8.8270   -7.0288   18.4251 C   0  0  0  0  0  0  0  0  0  0  0  0
    9.1576   -4.6236   15.8860 O   0  0  0  0  0  0  0  0  0  0  0  0
    9.1509   -5.9108   17.7177 C   0  0  0  0  0  0  0  0  0  0  0  0
    3.6373   -9.5349   16.0582 N   0  0  0  0  0  0  0  0  0  0  0  0
    9.9275   -4.8001   18.0438 N   0  0  0  0  0  0  0  0  0  0  0  0
    8.5908   -5.7425   16.4412 C   0  0  0  0  0  0  0  0  0  0  0  0
   10.5993   -4.8981   21.6068 C   0  0  0  0  0  0  0  0  0  0  0  0
   10.4258   -3.0106   23.0998 C   0  0  0  0  0  0  0  0  0  0  0  0
   10.2148   -3.4364   25.4200 C   0  0  0  0  0  0  0  0  0  0  0  0
    9.7853   -1.1840   24.4927 C   0  0  0  0  0  0  0  0  0  0  0  0
    5.0276   -8.5227   17.5352 C   0  0  0  0  0  0  0  0  0  0  0  0
    9.8187   -2.0895   25.5800 C   0  0  0  0  0  0  0  0  0  0  0  0
    5.6473   -8.7216   15.3158 C   0  0  0  0  0  0  0  0  0  0  0  0
   10.7581   -3.1233   19.4720 N   0  0  0  0  0  0  0  0  0  0  0  0
    9.9571   -4.0573   16.8866 C   0  0  0  0  0  0  0  0  0  0  0  0
    7.6213   -6.5618   16.0087 C   0  0  0  0  0  0  0  0  0  0  0  0
   10.8583   -2.6527   20.7222 C   0  0  0  0  0  0  0  0  0  0  0  0
   10.6412   -3.5089   21.7936 C   0  0  0  0  0  0  0  0  0  0  0  0
   10.4972   -3.8968   24.1589 C   0  0  0  0  0  0  0  0  0  0  0  0
    5.9260   -8.2736   16.5517 C   0  0  0  0  0  0  0  0  0  0  0  0
    3.8816   -9.1166   17.2493 C   0  0  0  0  0  0  0  0  0  0  0  0
   10.1297   -1.6575   23.2324 C   0  0  0  0  0  0  0  0  0  0  0  0
    9.4684   -1.6929   26.7263 F   0  0  0  0  0  0  0  0  0  0  0  0
    7.7963   -7.7906   17.9837 C   0  0  0  0  0  0  0  0  0  0  0  0
   10.5884   -3.0725   16.7902 O   0  0  0  0  0  0  0  0  0  0  0  0
   10.4323   -5.3494   20.3516 C   0  0  0  0  0  0  0  0  0  0  0  0
    7.1156   -7.5454   16.8218 C   0  0  0  0  0  0  0  0  0  0  0  0
   10.3885   -4.4388   19.2773 C   0  0  0  0  0  0  0  0  0  0  0  0
    4.5160   -9.3822   15.0841 C   0  0  0  0  0  0  0  0  0  0  0  0
  1  3  4  0
  1 24  4  0
  2  6  4  0
  2 15  4  0
  3  5  4  0
  3  6  4  0
  4 21  4  0
  4 29  4  0
  5 15  4  0
  5 28  1  0
  6 16  4  0
  7 18  4  0
  7 26  4  0
  8 18  1  0
  8 19  4  0
  8 22  4  0
  9 12  4  0
  9 19  4  0
 10 12  4  0
 10 22  4  0
 11 20  4  0
 11 21  4  0
 12 23  1  0
 13 20  4  0
 13 29  4  0
 14 17  4  0
 14 28  4  0
 15 25  2  0
 16 27  4  0
 17 18  4  0
 20 27  1  0
 24 27  4  0
 26 28  4  0
M  END
$$$$

 Created by Python create_sdf_string function

 29 33  0  0  0  0  0  0  0  0999 V2000
    8.8270   -7.0288   18.4251 C   0  0  0  0  0  0  0  0  0  0  0  0
    9.1576   -4.6236   15.8860 O   0  0  0  0  0  0  0  0  0  0  0  0
    9.1509   -5.9108   17.7177 C   0  0  0  0  0  0  0  0  0  0  0  0
    3.6373   -9.5349   16.0582 N   0  0  0  0  0  0  0  0  0  0  0  0
    9.9275   -4.8001   18.0438 N   0  0  0  0  0  0  0  0  0  0  0  0
    8.5908   -5.7425   16.4412 C   0  0  0  0  0  0  0  0  0  0  0  0
   10.5993   -4.8981   21.6068 C   0  0  0  0  0  0  0  0  0  0  0  0
   10.4258   -3.0106   23.0998 C   0  0  0  0  0  0  0  0  0  0  0  0
   10.2148   -3.4364   25.4200 C   0  0  0  0  0  0  0  0  0  0  0  0
    9.7853   -1.1840   24.4927 C   0  0  0  0  0  0  0  0  0  0  0  0
    5.0276   -8.5227   17.5352 C   0  0  0  0  0  0  0  0  0  0  0  0
    9.8187   -2.0895   25.5800 C   0  0  0  0  0  0  0  0  0  0  0  0
    5.6473   -8.7216   15.3158 C   0  0  0  0  0  0  0  0  0  0  0  0
   10.7581   -3.1233   19.4720 N   0  0  0  0  0  0  0  0  0  0  0  0
    9.9571   -4.0573   16.8866 C   0  0  0  0  0  0  0  0  0  0  0  0
    7.6213   -6.5618   16.0087 C   0  0  0  0  0  0  0  0  0  0  0  0
   10.8583   -2.6527   20.7222 C   0  0  0  0  0  0  0  0  0  0  0  0
   10.6412   -3.5089   21.7936 C   0  0  0  0  0  0  0  0  0  0  0  0
   10.4972   -3.8968   24.1589 C   0  0  0  0  0  0  0  0  0  0  0  0
    5.9260   -8.2736   16.5517 C   0  0  0  0  0  0  0  0  0  0  0  0
    3.8816   -9.1166   17.2493 C   0  0  0  0  0  0  0  0  0  0  0  0
   10.1297   -1.6575   23.2324 C   0  0  0  0  0  0  0  0  0  0  0  0
    9.4684   -1.6929   26.7263 F   0  0  0  0  0  0  0  0  0  0  0  0
    7.7963   -7.7906   17.9837 C   0  0  0  0  0  0  0  0  0  0  0  0
   10.5884   -3.0725   16.7902 O   0  0  0  0  0  0  0  0  0  0  0  0
   10.4323   -5.3494   20.3516 C   0  0  0  0  0  0  0  0  0  0  0  0
    7.1156   -7.5454   16.8218 C   0  0  0  0  0  0  0  0  0  0  0  0
   10.3885   -4.4388   19.2773 C   0  0  0  0  0  0  0  0  0  0  0  0
    4.5160   -9.3822   15.0841 C   0  0  0  0  0  0  0  0  0  0  0  0
  1  3  4  0
  1 24  4  0
  2  6  4  0
  2 15  4  0
  3  5  4  0
  3  6  4  0
  4 21  4  0
  4 29  4  0
  5 15  4  0
  5 28  1  0
  6 16  4  0
  7 18  4  0
  7 26  4  0
  8 18  1  0
  8 19  4  0
  8 22  4  0
  9 12  4  0
  9 19  4  0
 10 12  4  0
 10 22  4  0
 11 20  4  0
 11 21  4  0
 12 23  1  0
 13 20  4  0
 13 29  4  0
 14 17  4  0
 14 28  4  0
 15 25  2  0
 16 27  4  0
 17 18  4  0
 20 27  1  0
 24 27  4  0
 26 28  4  0
M  END
$$$$

 Created by Python create_sdf_string function

 29 33  0  0  0  0  0  0  0  0999 V2000
    8.8270   -7.0288   18.4251 C   0  0  0  0  0  0  0  0  0  0  0  0
    9.1576   -4.6236   15.8860 O   0  0  0  0  0  0  0  0  0  0  0  0
    9.1509   -5.9108   17.7177 C   0  0  0  0  0  0  0  0  0  0  0  0
    3.6373   -9.5349   16.0582 N   0  0  0  0  0  0  0  0  0  0  0  0
    9.9275   -4.8001   18.0438 N   0  0  0  0  0  0  0  0  0  0  0  0
    8.5908   -5.7425   16.4412 C   0  0  0  0  0  0  0  0  0  0  0  0
   10.5993   -4.8981   21.6068 C   0  0  0  0  0  0  0  0  0  0  0  0
   10.4258   -3.0106   23.0998 C   0  0  0  0  0  0  0  0  0  0  0  0
   10.2148   -3.4364   25.4200 C   0  0  0  0  0  0  0  0  0  0  0  0
    9.7853   -1.1840   24.4927 C   0  0  0  0  0  0  0  0  0  0  0  0
    5.0276   -8.5227   17.5352 C   0  0  0  0  0  0  0  0  0  0  0  0
    9.8187   -2.0895   25.5800 C   0  0  0  0  0  0  0  0  0  0  0  0
    5.6473   -8.7216   15.3158 C   0  0  0  0  0  0  0  0  0  0  0  0
   10.7581   -3.1233   19.4720 N   0  0  0  0  0  0  0  0  0  0  0  0
    9.9571   -4.0573   16.8866 C   0  0  0  0  0  0  0  0  0  0  0  0
    7.6213   -6.5618   16.0087 C   0  0  0  0  0  0  0  0  0  0  0  0
   10.8583   -2.6527   20.7222 C   0  0  0  0  0  0  0  0  0  0  0  0
   10.6412   -3.5089   21.7936 C   0  0  0  0  0  0  0  0  0  0  0  0
   10.4972   -3.8968   24.1589 C   0  0  0  0  0  0  0  0  0  0  0  0
    5.9260   -8.2736   16.5517 C   0  0  0  0  0  0  0  0  0  0  0  0
    3.8816   -9.1166   17.2493 C   0  0  0  0  0  0  0  0  0  0  0  0
   10.1297   -1.6575   23.2324 C   0  0  0  0  0  0  0  0  0  0  0  0
    9.4684   -1.6929   26.7263 F   0  0  0  0  0  0  0  0  0  0  0  0
    7.7963   -7.7906   17.9837 C   0  0  0  0  0  0  0  0  0  0  0  0
   10.5884   -3.0725   16.7902 O   0  0  0  0  0  0  0  0  0  0  0  0
   10.4323   -5.3494   20.3516 C   0  0  0  0  0  0  0  0  0  0  0  0
    7.1156   -7.5454   16.8218 C   0  0  0  0  0  0  0  0  0  0  0  0
   10.3885   -4.4388   19.2773 C   0  0  0  0  0  0  0  0  0  0  0  0
    4.5160   -9.3822   15.0841 C   0  0  0  0  0  0  0  0  0  0  0  0
  1  3  4  0
  1 24  4  0
  2  6  4  0
  2 15  4  0
  3  5  4  0
  3  6  4  0
  4 21  4  0
  4 29  4  0
  5 15  4  0
  5 28  1  0
  6 16  4  0
  7 18  4  0
  7 26  4  0
  8 18  1  0
  8 19  4  0
  8 22  4  0
  9 12  4  0
  9 19  4  0
 10 12  4  0
 10 22  4  0
 11 20  4  0
 11 21  4  0
 12 23  1  0
 13 20  4  0
 13 29  4  0
 14 17  4  0
 14 28  4  0
 15 25  2  0
 16 27  4  0
 17 18  4  0
 20 27  1  0
 24 27  4  0
 26 28  4  0
M  END
$$$$

 Created by Python create_sdf_string function

 29 33  0  0  0  0  0  0  0  0999 V2000
    8.8270   -7.0288   18.4251 C   0  0  0  0  0  0  0  0  0  0  0  0
    9.1576   -4.6236   15.8860 O   0  0  0  0  0  0  0  0  0  0  0  0
    9.1509   -5.9108   17.7177 C   0  0  0  0  0  0  0  0  0  0  0  0
    3.6373   -9.5349   16.0582 N   0  0  0  0  0  0  0  0  0  0  0  0
    9.9275   -4.8001   18.0438 N   0  0  0  0  0  0  0  0  0  0  0  0
    8.5908   -5.7425   16.4412 C   0  0  0  0  0  0  0  0  0  0  0  0
   10.5993   -4.8981   21.6068 C   0  0  0  0  0  0  0  0  0  0  0  0
   10.4258   -3.0106   23.0998 C   0  0  0  0  0  0  0  0  0  0  0  0
   10.2148   -3.4364   25.4200 C   0  0  0  0  0  0  0  0  0  0  0  0
    9.7853   -1.1840   24.4927 C   0  0  0  0  0  0  0  0  0  0  0  0
    5.0276   -8.5227   17.5352 C   0  0  0  0  0  0  0  0  0  0  0  0
    9.8187   -2.0895   25.5800 C   0  0  0  0  0  0  0  0  0  0  0  0
    5.6473   -8.7216   15.3158 C   0  0  0  0  0  0  0  0  0  0  0  0
   10.7581   -3.1233   19.4720 N   0  0  0  0  0  0  0  0  0  0  0  0
    9.9571   -4.0573   16.8866 C   0  0  0  0  0  0  0  0  0  0  0  0
    7.6213   -6.5618   16.0087 C   0  0  0  0  0  0  0  0  0  0  0  0
   10.8583   -2.6527   20.7222 C   0  0  0  0  0  0  0  0  0  0  0  0
   10.6412   -3.5089   21.7936 C   0  0  0  0  0  0  0  0  0  0  0  0
   10.4972   -3.8968   24.1589 C   0  0  0  0  0  0  0  0  0  0  0  0
    5.9260   -8.2736   16.5517 C   0  0  0  0  0  0  0  0  0  0  0  0
    3.8816   -9.1166   17.2493 C   0  0  0  0  0  0  0  0  0  0  0  0
   10.1297   -1.6575   23.2324 C   0  0  0  0  0  0  0  0  0  0  0  0
    9.4684   -1.6929   26.7263 F   0  0  0  0  0  0  0  0  0  0  0  0
    7.7963   -7.7906   17.9837 C   0  0  0  0  0  0  0  0  0  0  0  0
   10.5884   -3.0725   16.7902 O   0  0  0  0  0  0  0  0  0  0  0  0
   10.4323   -5.3494   20.3516 C   0  0  0  0  0  0  0  0  0  0  0  0
    7.1156   -7.5454   16.8218 C   0  0  0  0  0  0  0  0  0  0  0  0
   10.3885   -4.4388   19.2773 C   0  0  0  0  0  0  0  0  0  0  0  0
    4.5160   -9.3822   15.0841 C   0  0  0  0  0  0  0  0  0  0  0  0
  1  3  4  0
  1 24  4  0
  2  6  4  0
  2 15  4  0
  3  5  4  0
  3  6  4  0
  4 21  4  0
  4 29  4  0
  5 15  4  0
  5 28  1  0
  6 16  4  0
  7 18  4  0
  7 26  4  0
  8 18  1  0
  8 19  4  0
  8 22  4  0
  9 12  4  0
  9 19  4  0
 10 12  4  0
 10 22  4  0
 11 20  4  0
 11 21  4  0
 12 23  1  0
 13 20  4  0
 13 29  4  0
 14 17  4  0
 14 28  4  0
 15 25  2  0
 16 27  4  0
 17 18  4  0
 20 27  1  0
 24 27  4  0
 26 28  4  0
M  END
$$$$

 Created by Python create_sdf_string function

 29 33  0  0  0  0  0  0  0  0999 V2000
    8.8270   -7.0288   18.4251 C   0  0  0  0  0  0  0  0  0  0  0  0
    9.1576   -4.6236   15.8860 O   0  0  0  0  0  0  0  0  0  0  0  0
    9.1509   -5.9108   17.7177 C   0  0  0  0  0  0  0  0  0  0  0  0
    3.6373   -9.5349   16.0582 N   0  0  0  0  0  0  0  0  0  0  0  0
    9.9275   -4.8001   18.0438 N   0  0  0  0  0  0  0  0  0  0  0  0
    8.5908   -5.7425   16.4412 C   0  0  0  0  0  0  0  0  0  0  0  0
   10.5993   -4.8981   21.6068 C   0  0  0  0  0  0  0  0  0  0  0  0
   10.4258   -3.0106   23.0998 C   0  0  0  0  0  0  0  0  0  0  0  0
   10.2148   -3.4364   25.4200 C   0  0  0  0  0  0  0  0  0  0  0  0
    9.7853   -1.1840   24.4927 C   0  0  0  0  0  0  0  0  0  0  0  0
    5.0276   -8.5227   17.5352 C   0  0  0  0  0  0  0  0  0  0  0  0
    9.8187   -2.0895   25.5800 C   0  0  0  0  0  0  0  0  0  0  0  0
    5.6473   -8.7216   15.3158 C   0  0  0  0  0  0  0  0  0  0  0  0
   10.7581   -3.1233   19.4720 N   0  0  0  0  0  0  0  0  0  0  0  0
    9.9571   -4.0573   16.8866 C   0  0  0  0  0  0  0  0  0  0  0  0
    7.6213   -6.5618   16.0087 C   0  0  0  0  0  0  0  0  0  0  0  0
   10.8583   -2.6527   20.7222 C   0  0  0  0  0  0  0  0  0  0  0  0
   10.6412   -3.5089   21.7936 C   0  0  0  0  0  0  0  0  0  0  0  0
   10.4972   -3.8968   24.1589 C   0  0  0  0  0  0  0  0  0  0  0  0
    5.9260   -8.2736   16.5517 C   0  0  0  0  0  0  0  0  0  0  0  0
    3.8816   -9.1166   17.2493 C   0  0  0  0  0  0  0  0  0  0  0  0
   10.1297   -1.6575   23.2324 C   0  0  0  0  0  0  0  0  0  0  0  0
    9.4684   -1.6929   26.7263 F   0  0  0  0  0  0  0  0  0  0  0  0
    7.7963   -7.7906   17.9837 C   0  0  0  0  0  0  0  0  0  0  0  0
   10.5884   -3.0725   16.7902 O   0  0  0  0  0  0  0  0  0  0  0  0
   10.4323   -5.3494   20.3516 C   0  0  0  0  0  0  0  0  0  0  0  0
    7.1156   -7.5454   16.8218 C   0  0  0  0  0  0  0  0  0  0  0  0
   10.3885   -4.4388   19.2773 C   0  0  0  0  0  0  0  0  0  0  0  0
    4.5160   -9.3822   15.0841 C   0  0  0  0  0  0  0  0  0  0  0  0
  1  3  4  0
  1 24  4  0
  2  6  4  0
  2 15  4  0
  3  5  4  0
  3  6  4  0
  4 21  4  0
  4 29  4  0
  5 15  4  0
  5 28  1  0
  6 16  4  0
  7 18  4  0
  7 26  4  0
  8 18  1  0
  8 19  4  0
  8 22  4  0
  9 12  4  0
  9 19  4  0
 10 12  4  0
 10 22  4  0
 11 20  4  0
 11 21  4  0
 12 23  1  0
 13 20  4  0
 13 29  4  0
 14 17  4  0
 14 28  4  0
 15 25  2  0
 16 27  4  0
 17 18  4  0
 20 27  1  0
 24 27  4  0
 26 28  4  0
M  END
$$$$

 Created by Python create_sdf_string function

 29 33  0  0  0  0  0  0  0  0999 V2000
    8.8270   -7.0288   18.4251 C   0  0  0  0  0  0  0  0  0  0  0  0
    9.1576   -4.6236   15.8860 O   0  0  0  0  0  0  0  0  0  0  0  0
    9.1509   -5.9108   17.7177 C   0  0  0  0  0  0  0  0  0  0  0  0
    3.6373   -9.5349   16.0582 N   0  0  0  0  0  0  0  0  0  0  0  0
    9.9275   -4.8001   18.0438 N   0  0  0  0  0  0  0  0  0  0  0  0
    8.5908   -5.7425   16.4412 C   0  0  0  0  0  0  0  0  0  0  0  0
   10.5993   -4.8981   21.6068 C   0  0  0  0  0  0  0  0  0  0  0  0
   10.4258   -3.0106   23.0998 C   0  0  0  0  0  0  0  0  0  0  0  0
   10.2148   -3.4364   25.4200 C   0  0  0  0  0  0  0  0  0  0  0  0
    9.7853   -1.1840   24.4927 C   0  0  0  0  0  0  0  0  0  0  0  0
    5.0276   -8.5227   17.5352 C   0  0  0  0  0  0  0  0  0  0  0  0
    9.8187   -2.0895   25.5800 C   0  0  0  0  0  0  0  0  0  0  0  0
    5.6473   -8.7216   15.3158 C   0  0  0  0  0  0  0  0  0  0  0  0
   10.7581   -3.1233   19.4720 N   0  0  0  0  0  0  0  0  0  0  0  0
    9.9571   -4.0573   16.8866 C   0  0  0  0  0  0  0  0  0  0  0  0
    7.6213   -6.5618   16.0087 C   0  0  0  0  0  0  0  0  0  0  0  0
   10.8583   -2.6527   20.7222 C   0  0  0  0  0  0  0  0  0  0  0  0
   10.6412   -3.5089   21.7936 C   0  0  0  0  0  0  0  0  0  0  0  0
   10.4972   -3.8968   24.1589 C   0  0  0  0  0  0  0  0  0  0  0  0
    5.9260   -8.2736   16.5517 C   0  0  0  0  0  0  0  0  0  0  0  0
    3.8816   -9.1166   17.2493 C   0  0  0  0  0  0  0  0  0  0  0  0
   10.1297   -1.6575   23.2324 C   0  0  0  0  0  0  0  0  0  0  0  0
    9.4684   -1.6929   26.7263 F   0  0  0  0  0  0  0  0  0  0  0  0
    7.7963   -7.7906   17.9837 C   0  0  0  0  0  0  0  0  0  0  0  0
   10.5884   -3.0725   16.7902 O   0  0  0  0  0  0  0  0  0  0  0  0
   10.4323   -5.3494   20.3516 C   0  0  0  0  0  0  0  0  0  0  0  0
    7.1156   -7.5454   16.8218 C   0  0  0  0  0  0  0  0  0  0  0  0
   10.3885   -4.4388   19.2773 C   0  0  0  0  0  0  0  0  0  0  0  0
    4.5160   -9.3822   15.0841 C   0  0  0  0  0  0  0  0  0  0  0  0
  1  3  4  0
  1 24  4  0
  2  6  4  0
  2 15  4  0
  3  5  4  0
  3  6  4  0
  4 21  4  0
  4 29  4  0
  5 15  4  0
  5 28  1  0
  6 16  4  0
  7 18  4  0
  7 26  4  0
  8 18  1  0
  8 19  4  0
  8 22  4  0
  9 12  4  0
  9 19  4  0
 10 12  4  0
 10 22  4  0
 11 20  4  0
 11 21  4  0
 12 23  1  0
 13 20  4  0
 13 29  4  0
 14 17  4  0
 14 28  4  0
 15 25  2  0
 16 27  4  0
 17 18  4  0
 20 27  1  0
 24 27  4  0
 26 28  4  0
M  END
$$$$

 Created by Python create_sdf_string function

 29 33  0  0  0  0  0  0  0  0999 V2000
    8.8270   -7.0288   18.4251 C   0  0  0  0  0  0  0  0  0  0  0  0
    9.1576   -4.6236   15.8860 O   0  0  0  0  0  0  0  0  0  0  0  0
    9.1509   -5.9108   17.7177 C   0  0  0  0  0  0  0  0  0  0  0  0
    3.6373   -9.5349   16.0582 N   0  0  0  0  0  0  0  0  0  0  0  0
    9.9275   -4.8001   18.0438 N   0  0  0  0  0  0  0  0  0  0  0  0
    8.5908   -5.7425   16.4412 C   0  0  0  0  0  0  0  0  0  0  0  0
   10.5993   -4.8981   21.6068 C   0  0  0  0  0  0  0  0  0  0  0  0
   10.4258   -3.0106   23.0998 C   0  0  0  0  0  0  0  0  0  0  0  0
   10.2148   -3.4364   25.4200 C   0  0  0  0  0  0  0  0  0  0  0  0
    9.7853   -1.1840   24.4927 C   0  0  0  0  0  0  0  0  0  0  0  0
    5.0276   -8.5227   17.5352 C   0  0  0  0  0  0  0  0  0  0  0  0
    9.8187   -2.0895   25.5800 C   0  0  0  0  0  0  0  0  0  0  0  0
    5.6473   -8.7216   15.3158 C   0  0  0  0  0  0  0  0  0  0  0  0
   10.7581   -3.1233   19.4720 N   0  0  0  0  0  0  0  0  0  0  0  0
    9.9571   -4.0573   16.8866 C   0  0  0  0  0  0  0  0  0  0  0  0
    7.6213   -6.5618   16.0087 C   0  0  0  0  0  0  0  0  0  0  0  0
   10.8583   -2.6527   20.7222 C   0  0  0  0  0  0  0  0  0  0  0  0
   10.6412   -3.5089   21.7936 C   0  0  0  0  0  0  0  0  0  0  0  0
   10.4972   -3.8968   24.1589 C   0  0  0  0  0  0  0  0  0  0  0  0
    5.9260   -8.2736   16.5517 C   0  0  0  0  0  0  0  0  0  0  0  0
    3.8816   -9.1166   17.2493 C   0  0  0  0  0  0  0  0  0  0  0  0
   10.1297   -1.6575   23.2324 C   0  0  0  0  0  0  0  0  0  0  0  0
    9.4684   -1.6929   26.7263 F   0  0  0  0  0  0  0  0  0  0  0  0
    7.7963   -7.7906   17.9837 C   0  0  0  0  0  0  0  0  0  0  0  0
   10.5884   -3.0725   16.7902 O   0  0  0  0  0  0  0  0  0  0  0  0
   10.4323   -5.3494   20.3516 C   0  0  0  0  0  0  0  0  0  0  0  0
    7.1156   -7.5454   16.8218 C   0  0  0  0  0  0  0  0  0  0  0  0
   10.3885   -4.4388   19.2773 C   0  0  0  0  0  0  0  0  0  0  0  0
    4.5160   -9.3822   15.0841 C   0  0  0  0  0  0  0  0  0  0  0  0
  1  3  4  0
  1 24  4  0
  2  6  4  0
  2 15  4  0
  3  5  4  0
  3  6  4  0
  4 21  4  0
  4 29  4  0
  5 15  4  0
  5 28  1  0
  6 16  4  0
  7 18  4  0
  7 26  4  0
  8 18  1  0
  8 19  4  0
  8 22  4  0
  9 12  4  0
  9 19  4  0
 10 12  4  0
 10 22  4  0
 11 20  4  0
 11 21  4  0
 12 23  1  0
 13 20  4  0
 13 29  4  0
 14 17  4  0
 14 28  4  0
 15 25  2  0
 16 27  4  0
 17 18  4  0
 20 27  1  0
 24 27  4  0
 26 28  4  0
M  END
$$$$

 Created by Python create_sdf_string function

 29 33  0  0  0  0  0  0  0  0999 V2000
    8.8270   -7.0288   18.4251 C   0  0  0  0  0  0  0  0  0  0  0  0
    9.1576   -4.6236   15.8860 O   0  0  0  0  0  0  0  0  0  0  0  0
    9.1509   -5.9108   17.7177 C   0  0  0  0  0  0  0  0  0  0  0  0
    3.6373   -9.5349   16.0582 N   0  0  0  0  0  0  0  0  0  0  0  0
    9.9275   -4.8001   18.0438 N   0  0  0  0  0  0  0  0  0  0  0  0
    8.5908   -5.7425   16.4412 C   0  0  0  0  0  0  0  0  0  0  0  0
   10.5993   -4.8981   21.6068 C   0  0  0  0  0  0  0  0  0  0  0  0
   10.4258   -3.0106   23.0998 C   0  0  0  0  0  0  0  0  0  0  0  0
   10.2148   -3.4364   25.4200 C   0  0  0  0  0  0  0  0  0  0  0  0
    9.7853   -1.1840   24.4927 C   0  0  0  0  0  0  0  0  0  0  0  0
    5.0276   -8.5227   17.5352 C   0  0  0  0  0  0  0  0  0  0  0  0
    9.8187   -2.0895   25.5800 C   0  0  0  0  0  0  0  0  0  0  0  0
    5.6473   -8.7216   15.3158 C   0  0  0  0  0  0  0  0  0  0  0  0
   10.7581   -3.1233   19.4720 N   0  0  0  0  0  0  0  0  0  0  0  0
    9.9571   -4.0573   16.8866 C   0  0  0  0  0  0  0  0  0  0  0  0
    7.6213   -6.5618   16.0087 C   0  0  0  0  0  0  0  0  0  0  0  0
   10.8583   -2.6527   20.7222 C   0  0  0  0  0  0  0  0  0  0  0  0
   10.6412   -3.5089   21.7936 C   0  0  0  0  0  0  0  0  0  0  0  0
   10.4972   -3.8968   24.1589 C   0  0  0  0  0  0  0  0  0  0  0  0
    5.9260   -8.2736   16.5517 C   0  0  0  0  0  0  0  0  0  0  0  0
    3.8816   -9.1166   17.2493 C   0  0  0  0  0  0  0  0  0  0  0  0
   10.1297   -1.6575   23.2324 C   0  0  0  0  0  0  0  0  0  0  0  0
    9.4684   -1.6929   26.7263 F   0  0  0  0  0  0  0  0  0  0  0  0
    7.7963   -7.7906   17.9837 C   0  0  0  0  0  0  0  0  0  0  0  0
   10.5884   -3.0725   16.7902 O   0  0  0  0  0  0  0  0  0  0  0  0
   10.4323   -5.3494   20.3516 C   0  0  0  0  0  0  0  0  0  0  0  0
    7.1156   -7.5454   16.8218 C   0  0  0  0  0  0  0  0  0  0  0  0
   10.3885   -4.4388   19.2773 C   0  0  0  0  0  0  0  0  0  0  0  0
    4.5160   -9.3822   15.0841 C   0  0  0  0  0  0  0  0  0  0  0  0
  1  3  4  0
  1 24  4  0
  2  6  4  0
  2 15  4  0
  3  5  4  0
  3  6  4  0
  4 21  4  0
  4 29  4  0
  5 15  4  0
  5 28  1  0
  6 16  4  0
  7 18  4  0
  7 26  4  0
  8 18  1  0
  8 19  4  0
  8 22  4  0
  9 12  4  0
  9 19  4  0
 10 12  4  0
 10 22  4  0
 11 20  4  0
 11 21  4  0
 12 23  1  0
 13 20  4  0
 13 29  4  0
 14 17  4  0
 14 28  4  0
 15 25  2  0
 16 27  4  0
 17 18  4  0
 20 27  1  0
 24 27  4  0
 26 28  4  0
M  END
$$$$

 Created by Python create_sdf_string function

 29 33  0  0  0  0  0  0  0  0999 V2000
    8.8270   -7.0288   18.4251 C   0  0  0  0  0  0  0  0  0  0  0  0
    9.1576   -4.6236   15.8860 O   0  0  0  0  0  0  0  0  0  0  0  0
    9.1509   -5.9108   17.7177 C   0  0  0  0  0  0  0  0  0  0  0  0
    3.6373   -9.5349   16.0582 N   0  0  0  0  0  0  0  0  0  0  0  0
    9.9275   -4.8001   18.0438 N   0  0  0  0  0  0  0  0  0  0  0  0
    8.5908   -5.7425   16.4412 C   0  0  0  0  0  0  0  0  0  0  0  0
   10.5993   -4.8981   21.6068 C   0  0  0  0  0  0  0  0  0  0  0  0
   10.4258   -3.0106   23.0998 C   0  0  0  0  0  0  0  0  0  0  0  0
   10.2148   -3.4364   25.4200 C   0  0  0  0  0  0  0  0  0  0  0  0
    9.7853   -1.1840   24.4927 C   0  0  0  0  0  0  0  0  0  0  0  0
    5.0276   -8.5227   17.5352 C   0  0  0  0  0  0  0  0  0  0  0  0
    9.8187   -2.0895   25.5800 C   0  0  0  0  0  0  0  0  0  0  0  0
    5.6473   -8.7216   15.3158 C   0  0  0  0  0  0  0  0  0  0  0  0
   10.7581   -3.1233   19.4720 N   0  0  0  0  0  0  0  0  0  0  0  0
    9.9571   -4.0573   16.8866 C   0  0  0  0  0  0  0  0  0  0  0  0
    7.6213   -6.5618   16.0087 C   0  0  0  0  0  0  0  0  0  0  0  0
   10.8583   -2.6527   20.7222 C   0  0  0  0  0  0  0  0  0  0  0  0
   10.6412   -3.5089   21.7936 C   0  0  0  0  0  0  0  0  0  0  0  0
   10.4972   -3.8968   24.1589 C   0  0  0  0  0  0  0  0  0  0  0  0
    5.9260   -8.2736   16.5517 C   0  0  0  0  0  0  0  0  0  0  0  0
    3.8816   -9.1166   17.2493 C   0  0  0  0  0  0  0  0  0  0  0  0
   10.1297   -1.6575   23.2324 C   0  0  0  0  0  0  0  0  0  0  0  0
    9.4684   -1.6929   26.7263 F   0  0  0  0  0  0  0  0  0  0  0  0
    7.7963   -7.7906   17.9837 C   0  0  0  0  0  0  0  0  0  0  0  0
   10.5884   -3.0725   16.7902 O   0  0  0  0  0  0  0  0  0  0  0  0
   10.4323   -5.3494   20.3516 C   0  0  0  0  0  0  0  0  0  0  0  0
    7.1156   -7.5454   16.8218 C   0  0  0  0  0  0  0  0  0  0  0  0
   10.3885   -4.4388   19.2773 C   0  0  0  0  0  0  0  0  0  0  0  0
    4.5160   -9.3822   15.0841 C   0  0  0  0  0  0  0  0  0  0  0  0
  1  3  4  0
  1 24  4  0
  2  6  4  0
  2 15  4  0
  3  5  4  0
  3  6  4  0
  4 21  4  0
  4 29  4  0
  5 15  4  0
  5 28  1  0
  6 16  4  0
  7 18  4  0
  7 26  4  0
  8 18  1  0
  8 19  4  0
  8 22  4  0
  9 12  4  0
  9 19  4  0
 10 12  4  0
 10 22  4  0
 11 20  4  0
 11 21  4  0
 12 23  1  0
 13 20  4  0
 13 29  4  0
 14 17  4  0
 14 28  4  0
 15 25  2  0
 16 27  4  0
 17 18  4  0
 20 27  1  0
 24 27  4  0
 26 28  4  0
M  END
$$$$

 Created by Python create_sdf_string function

 29 33  0  0  0  0  0  0  0  0999 V2000
    8.8270   -7.0288   18.4251 C   0  0  0  0  0  0  0  0  0  0  0  0
    9.1576   -4.6236   15.8860 O   0  0  0  0  0  0  0  0  0  0  0  0
    9.1509   -5.9108   17.7177 C   0  0  0  0  0  0  0  0  0  0  0  0
    3.6373   -9.5349   16.0582 N   0  0  0  0  0  0  0  0  0  0  0  0
    9.9275   -4.8001   18.0438 N   0  0  0  0  0  0  0  0  0  0  0  0
    8.5908   -5.7425   16.4412 C   0  0  0  0  0  0  0  0  0  0  0  0
   10.5993   -4.8981   21.6068 C   0  0  0  0  0  0  0  0  0  0  0  0
   10.4258   -3.0106   23.0998 C   0  0  0  0  0  0  0  0  0  0  0  0
   10.2148   -3.4364   25.4200 C   0  0  0  0  0  0  0  0  0  0  0  0
    9.7853   -1.1840   24.4927 C   0  0  0  0  0  0  0  0  0  0  0  0
    5.0276   -8.5227   17.5352 C   0  0  0  0  0  0  0  0  0  0  0  0
    9.8187   -2.0895   25.5800 C   0  0  0  0  0  0  0  0  0  0  0  0
    5.6473   -8.7216   15.3158 C   0  0  0  0  0  0  0  0  0  0  0  0
   10.7581   -3.1233   19.4720 N   0  0  0  0  0  0  0  0  0  0  0  0
    9.9571   -4.0573   16.8866 C   0  0  0  0  0  0  0  0  0  0  0  0
    7.6213   -6.5618   16.0087 C   0  0  0  0  0  0  0  0  0  0  0  0
   10.8583   -2.6527   20.7222 C   0  0  0  0  0  0  0  0  0  0  0  0
   10.6412   -3.5089   21.7936 C   0  0  0  0  0  0  0  0  0  0  0  0
   10.4972   -3.8968   24.1589 C   0  0  0  0  0  0  0  0  0  0  0  0
    5.9260   -8.2736   16.5517 C   0  0  0  0  0  0  0  0  0  0  0  0
    3.8816   -9.1166   17.2493 C   0  0  0  0  0  0  0  0  0  0  0  0
   10.1297   -1.6575   23.2324 C   0  0  0  0  0  0  0  0  0  0  0  0
    9.4684   -1.6929   26.7263 F   0  0  0  0  0  0  0  0  0  0  0  0
    7.7963   -7.7906   17.9837 C   0  0  0  0  0  0  0  0  0  0  0  0
   10.5884   -3.0725   16.7902 O   0  0  0  0  0  0  0  0  0  0  0  0
   10.4323   -5.3494   20.3516 C   0  0  0  0  0  0  0  0  0  0  0  0
    7.1156   -7.5454   16.8218 C   0  0  0  0  0  0  0  0  0  0  0  0
   10.3885   -4.4388   19.2773 C   0  0  0  0  0  0  0  0  0  0  0  0
    4.5160   -9.3822   15.0841 C   0  0  0  0  0  0  0  0  0  0  0  0
  1  3  4  0
  1 24  4  0
  2  6  4  0
  2 15  4  0
  3  5  4  0
  3  6  4  0
  4 21  4  0
  4 29  4  0
  5 15  4  0
  5 28  1  0
  6 16  4  0
  7 18  4  0
  7 26  4  0
  8 18  1  0
  8 19  4  0
  8 22  4  0
  9 12  4  0
  9 19  4  0
 10 12  4  0
 10 22  4  0
 11 20  4  0
 11 21  4  0
 12 23  1  0
 13 20  4  0
 13 29  4  0
 14 17  4  0
 14 28  4  0
 15 25  2  0
 16 27  4  0
 17 18  4  0
 20 27  1  0
 24 27  4  0
 26 28  4  0
M  END
$$$$

 Created by Python create_sdf_string function

 29 33  0  0  0  0  0  0  0  0999 V2000
    8.8270   -7.0288   18.4251 C   0  0  0  0  0  0  0  0  0  0  0  0
    9.1576   -4.6236   15.8860 O   0  0  0  0  0  0  0  0  0  0  0  0
    9.1509   -5.9108   17.7177 C   0  0  0  0  0  0  0  0  0  0  0  0
    3.6373   -9.5349   16.0582 N   0  0  0  0  0  0  0  0  0  0  0  0
    9.9275   -4.8001   18.0438 N   0  0  0  0  0  0  0  0  0  0  0  0
    8.5908   -5.7425   16.4412 C   0  0  0  0  0  0  0  0  0  0  0  0
   10.5993   -4.8981   21.6068 C   0  0  0  0  0  0  0  0  0  0  0  0
   10.4258   -3.0106   23.0998 C   0  0  0  0  0  0  0  0  0  0  0  0
   10.2148   -3.4364   25.4200 C   0  0  0  0  0  0  0  0  0  0  0  0
    9.7853   -1.1840   24.4927 C   0  0  0  0  0  0  0  0  0  0  0  0
    5.0276   -8.5227   17.5352 C   0  0  0  0  0  0  0  0  0  0  0  0
    9.8187   -2.0895   25.5800 C   0  0  0  0  0  0  0  0  0  0  0  0
    5.6473   -8.7216   15.3158 C   0  0  0  0  0  0  0  0  0  0  0  0
   10.7581   -3.1233   19.4720 N   0  0  0  0  0  0  0  0  0  0  0  0
    9.9571   -4.0573   16.8866 C   0  0  0  0  0  0  0  0  0  0  0  0
    7.6213   -6.5618   16.0087 C   0  0  0  0  0  0  0  0  0  0  0  0
   10.8583   -2.6527   20.7222 C   0  0  0  0  0  0  0  0  0  0  0  0
   10.6412   -3.5089   21.7936 C   0  0  0  0  0  0  0  0  0  0  0  0
   10.4972   -3.8968   24.1589 C   0  0  0  0  0  0  0  0  0  0  0  0
    5.9260   -8.2736   16.5517 C   0  0  0  0  0  0  0  0  0  0  0  0
    3.8816   -9.1166   17.2493 C   0  0  0  0  0  0  0  0  0  0  0  0
   10.1297   -1.6575   23.2324 C   0  0  0  0  0  0  0  0  0  0  0  0
    9.4684   -1.6929   26.7263 F   0  0  0  0  0  0  0  0  0  0  0  0
    7.7963   -7.7906   17.9837 C   0  0  0  0  0  0  0  0  0  0  0  0
   10.5884   -3.0725   16.7902 O   0  0  0  0  0  0  0  0  0  0  0  0
   10.4323   -5.3494   20.3516 C   0  0  0  0  0  0  0  0  0  0  0  0
    7.1156   -7.5454   16.8218 C   0  0  0  0  0  0  0  0  0  0  0  0
   10.3885   -4.4388   19.2773 C   0  0  0  0  0  0  0  0  0  0  0  0
    4.5160   -9.3822   15.0841 C   0  0  0  0  0  0  0  0  0  0  0  0
  1  3  4  0
  1 24  4  0
  2  6  4  0
  2 15  4  0
  3  5  4  0
  3  6  4  0
  4 21  4  0
  4 29  4  0
  5 15  4  0
  5 28  1  0
  6 16  4  0
  7 18  4  0
  7 26  4  0
  8 18  1  0
  8 19  4  0
  8 22  4  0
  9 12  4  0
  9 19  4  0
 10 12  4  0
 10 22  4  0
 11 20  4  0
 11 21  4  0
 12 23  1  0
 13 20  4  0
 13 29  4  0
 14 17  4  0
 14 28  4  0
 15 25  2  0
 16 27  4  0
 17 18  4  0
 20 27  1  0
 24 27  4  0
 26 28  4  0
M  END
$$$$

 Created by Python create_sdf_string function

 29 33  0  0  0  0  0  0  0  0999 V2000
    8.8270   -7.0288   18.4251 C   0  0  0  0  0  0  0  0  0  0  0  0
    9.1576   -4.6236   15.8860 O   0  0  0  0  0  0  0  0  0  0  0  0
    9.1509   -5.9108   17.7177 C   0  0  0  0  0  0  0  0  0  0  0  0
    3.6373   -9.5349   16.0582 N   0  0  0  0  0  0  0  0  0  0  0  0
    9.9275   -4.8001   18.0438 N   0  0  0  0  0  0  0  0  0  0  0  0
    8.5908   -5.7425   16.4412 C   0  0  0  0  0  0  0  0  0  0  0  0
   10.5993   -4.8981   21.6068 C   0  0  0  0  0  0  0  0  0  0  0  0
   10.4258   -3.0106   23.0998 C   0  0  0  0  0  0  0  0  0  0  0  0
   10.2148   -3.4364   25.4200 C   0  0  0  0  0  0  0  0  0  0  0  0
    9.7853   -1.1840   24.4927 C   0  0  0  0  0  0  0  0  0  0  0  0
    5.0276   -8.5227   17.5352 C   0  0  0  0  0  0  0  0  0  0  0  0
    9.8187   -2.0895   25.5800 C   0  0  0  0  0  0  0  0  0  0  0  0
    5.6473   -8.7216   15.3158 C   0  0  0  0  0  0  0  0  0  0  0  0
   10.7581   -3.1233   19.4720 N   0  0  0  0  0  0  0  0  0  0  0  0
    9.9571   -4.0573   16.8866 C   0  0  0  0  0  0  0  0  0  0  0  0
    7.6213   -6.5618   16.0087 C   0  0  0  0  0  0  0  0  0  0  0  0
   10.8583   -2.6527   20.7222 C   0  0  0  0  0  0  0  0  0  0  0  0
   10.6412   -3.5089   21.7936 C   0  0  0  0  0  0  0  0  0  0  0  0
   10.4972   -3.8968   24.1589 C   0  0  0  0  0  0  0  0  0  0  0  0
    5.9260   -8.2736   16.5517 C   0  0  0  0  0  0  0  0  0  0  0  0
    3.8816   -9.1166   17.2493 C   0  0  0  0  0  0  0  0  0  0  0  0
   10.1297   -1.6575   23.2324 C   0  0  0  0  0  0  0  0  0  0  0  0
    9.4684   -1.6929   26.7263 F   0  0  0  0  0  0  0  0  0  0  0  0
    7.7963   -7.7906   17.9837 C   0  0  0  0  0  0  0  0  0  0  0  0
   10.5884   -3.0725   16.7902 O   0  0  0  0  0  0  0  0  0  0  0  0
   10.4323   -5.3494   20.3516 C   0  0  0  0  0  0  0  0  0  0  0  0
    7.1156   -7.5454   16.8218 C   0  0  0  0  0  0  0  0  0  0  0  0
   10.3885   -4.4388   19.2773 C   0  0  0  0  0  0  0  0  0  0  0  0
    4.5160   -9.3822   15.0841 C   0  0  0  0  0  0  0  0  0  0  0  0
  1  3  4  0
  1 24  4  0
  2  6  4  0
  2 15  4  0
  3  5  4  0
  3  6  4  0
  4 21  4  0
  4 29  4  0
  5 15  4  0
  5 28  1  0
  6 16  4  0
  7 18  4  0
  7 26  4  0
  8 18  1  0
  8 19  4  0
  8 22  4  0
  9 12  4  0
  9 19  4  0
 10 12  4  0
 10 22  4  0
 11 20  4  0
 11 21  4  0
 12 23  1  0
 13 20  4  0
 13 29  4  0
 14 17  4  0
 14 28  4  0
 15 25  2  0
 16 27  4  0
 17 18  4  0
 20 27  1  0
 24 27  4  0
 26 28  4  0
M  END
$$$$

 Created by Python create_sdf_string function

 29 33  0  0  0  0  0  0  0  0999 V2000
    8.8270   -7.0288   18.4251 C   0  0  0  0  0  0  0  0  0  0  0  0
    9.1576   -4.6236   15.8860 O   0  0  0  0  0  0  0  0  0  0  0  0
    9.1509   -5.9108   17.7177 C   0  0  0  0  0  0  0  0  0  0  0  0
    3.6373   -9.5349   16.0582 N   0  0  0  0  0  0  0  0  0  0  0  0
    9.9275   -4.8001   18.0438 N   0  0  0  0  0  0  0  0  0  0  0  0
    8.5908   -5.7425   16.4412 C   0  0  0  0  0  0  0  0  0  0  0  0
   10.5993   -4.8981   21.6068 C   0  0  0  0  0  0  0  0  0  0  0  0
   10.4258   -3.0106   23.0998 C   0  0  0  0  0  0  0  0  0  0  0  0
   10.2148   -3.4364   25.4200 C   0  0  0  0  0  0  0  0  0  0  0  0
    9.7853   -1.1840   24.4927 C   0  0  0  0  0  0  0  0  0  0  0  0
    5.0276   -8.5227   17.5352 C   0  0  0  0  0  0  0  0  0  0  0  0
    9.8187   -2.0895   25.5800 C   0  0  0  0  0  0  0  0  0  0  0  0
    5.6473   -8.7216   15.3158 C   0  0  0  0  0  0  0  0  0  0  0  0
   10.7581   -3.1233   19.4720 N   0  0  0  0  0  0  0  0  0  0  0  0
    9.9571   -4.0573   16.8866 C   0  0  0  0  0  0  0  0  0  0  0  0
    7.6213   -6.5618   16.0087 C   0  0  0  0  0  0  0  0  0  0  0  0
   10.8583   -2.6527   20.7222 C   0  0  0  0  0  0  0  0  0  0  0  0
   10.6412   -3.5089   21.7936 C   0  0  0  0  0  0  0  0  0  0  0  0
   10.4972   -3.8968   24.1589 C   0  0  0  0  0  0  0  0  0  0  0  0
    5.9260   -8.2736   16.5517 C   0  0  0  0  0  0  0  0  0  0  0  0
    3.8816   -9.1166   17.2493 C   0  0  0  0  0  0  0  0  0  0  0  0
   10.1297   -1.6575   23.2324 C   0  0  0  0  0  0  0  0  0  0  0  0
    9.4684   -1.6929   26.7263 F   0  0  0  0  0  0  0  0  0  0  0  0
    7.7963   -7.7906   17.9837 C   0  0  0  0  0  0  0  0  0  0  0  0
   10.5884   -3.0725   16.7902 O   0  0  0  0  0  0  0  0  0  0  0  0
   10.4323   -5.3494   20.3516 C   0  0  0  0  0  0  0  0  0  0  0  0
    7.1156   -7.5454   16.8218 C   0  0  0  0  0  0  0  0  0  0  0  0
   10.3885   -4.4388   19.2773 C   0  0  0  0  0  0  0  0  0  0  0  0
    4.5160   -9.3822   15.0841 C   0  0  0  0  0  0  0  0  0  0  0  0
  1  3  4  0
  1 24  4  0
  2  6  4  0
  2 15  4  0
  3  5  4  0
  3  6  4  0
  4 21  4  0
  4 29  4  0
  5 15  4  0
  5 28  1  0
  6 16  4  0
  7 18  4  0
  7 26  4  0
  8 18  1  0
  8 19  4  0
  8 22  4  0
  9 12  4  0
  9 19  4  0
 10 12  4  0
 10 22  4  0
 11 20  4  0
 11 21  4  0
 12 23  1  0
 13 20  4  0
 13 29  4  0
 14 17  4  0
 14 28  4  0
 15 25  2  0
 16 27  4  0
 17 18  4  0
 20 27  1  0
 24 27  4  0
 26 28  4  0
M  END
$$$$

 Created by Python create_sdf_string function

 29 33  0  0  0  0  0  0  0  0999 V2000
    8.8270   -7.0288   18.4251 C   0  0  0  0  0  0  0  0  0  0  0  0
    9.1576   -4.6236   15.8860 O   0  0  0  0  0  0  0  0  0  0  0  0
    9.1509   -5.9108   17.7177 C   0  0  0  0  0  0  0  0  0  0  0  0
    3.6373   -9.5349   16.0582 N   0  0  0  0  0  0  0  0  0  0  0  0
    9.9275   -4.8001   18.0438 N   0  0  0  0  0  0  0  0  0  0  0  0
    8.5908   -5.7425   16.4412 C   0  0  0  0  0  0  0  0  0  0  0  0
   10.5993   -4.8981   21.6068 C   0  0  0  0  0  0  0  0  0  0  0  0
   10.4258   -3.0106   23.0998 C   0  0  0  0  0  0  0  0  0  0  0  0
   10.2148   -3.4364   25.4200 C   0  0  0  0  0  0  0  0  0  0  0  0
    9.7853   -1.1840   24.4927 C   0  0  0  0  0  0  0  0  0  0  0  0
    5.0276   -8.5227   17.5352 C   0  0  0  0  0  0  0  0  0  0  0  0
    9.8187   -2.0895   25.5800 C   0  0  0  0  0  0  0  0  0  0  0  0
    5.6473   -8.7216   15.3158 C   0  0  0  0  0  0  0  0  0  0  0  0
   10.7581   -3.1233   19.4720 N   0  0  0  0  0  0  0  0  0  0  0  0
    9.9571   -4.0573   16.8866 C   0  0  0  0  0  0  0  0  0  0  0  0
    7.6213   -6.5618   16.0087 C   0  0  0  0  0  0  0  0  0  0  0  0
   10.8583   -2.6527   20.7222 C   0  0  0  0  0  0  0  0  0  0  0  0
   10.6412   -3.5089   21.7936 C   0  0  0  0  0  0  0  0  0  0  0  0
   10.4972   -3.8968   24.1589 C   0  0  0  0  0  0  0  0  0  0  0  0
    5.9260   -8.2736   16.5517 C   0  0  0  0  0  0  0  0  0  0  0  0
    3.8816   -9.1166   17.2493 C   0  0  0  0  0  0  0  0  0  0  0  0
   10.1297   -1.6575   23.2324 C   0  0  0  0  0  0  0  0  0  0  0  0
    9.4684   -1.6929   26.7263 F   0  0  0  0  0  0  0  0  0  0  0  0
    7.7963   -7.7906   17.9837 C   0  0  0  0  0  0  0  0  0  0  0  0
   10.5884   -3.0725   16.7902 O   0  0  0  0  0  0  0  0  0  0  0  0
   10.4323   -5.3494   20.3516 C   0  0  0  0  0  0  0  0  0  0  0  0
    7.1156   -7.5454   16.8218 C   0  0  0  0  0  0  0  0  0  0  0  0
   10.3885   -4.4388   19.2773 C   0  0  0  0  0  0  0  0  0  0  0  0
    4.5160   -9.3822   15.0841 C   0  0  0  0  0  0  0  0  0  0  0  0
  1  3  4  0
  1 24  4  0
  2  6  4  0
  2 15  4  0
  3  5  4  0
  3  6  4  0
  4 21  4  0
  4 29  4  0
  5 15  4  0
  5 28  1  0
  6 16  4  0
  7 18  4  0
  7 26  4  0
  8 18  1  0
  8 19  4  0
  8 22  4  0
  9 12  4  0
  9 19  4  0
 10 12  4  0
 10 22  4  0
 11 20  4  0
 11 21  4  0
 12 23  1  0
 13 20  4  0
 13 29  4  0
 14 17  4  0
 14 28  4  0
 15 25  2  0
 16 27  4  0
 17 18  4  0
 20 27  1  0
 24 27  4  0
 26 28  4  0
M  END
$$$$

 Created by Python create_sdf_string function

 29 33  0  0  0  0  0  0  0  0999 V2000
    8.8270   -7.0288   18.4251 C   0  0  0  0  0  0  0  0  0  0  0  0
    9.1576   -4.6236   15.8860 O   0  0  0  0  0  0  0  0  0  0  0  0
    9.1509   -5.9108   17.7177 C   0  0  0  0  0  0  0  0  0  0  0  0
    3.6373   -9.5349   16.0582 N   0  0  0  0  0  0  0  0  0  0  0  0
    9.9275   -4.8001   18.0438 N   0  0  0  0  0  0  0  0  0  0  0  0
    8.5908   -5.7425   16.4412 C   0  0  0  0  0  0  0  0  0  0  0  0
   10.5993   -4.8981   21.6068 C   0  0  0  0  0  0  0  0  0  0  0  0
   10.4258   -3.0106   23.0998 C   0  0  0  0  0  0  0  0  0  0  0  0
   10.2148   -3.4364   25.4200 C   0  0  0  0  0  0  0  0  0  0  0  0
    9.7853   -1.1840   24.4927 C   0  0  0  0  0  0  0  0  0  0  0  0
    5.0276   -8.5227   17.5352 C   0  0  0  0  0  0  0  0  0  0  0  0
    9.8187   -2.0895   25.5800 C   0  0  0  0  0  0  0  0  0  0  0  0
    5.6473   -8.7216   15.3158 C   0  0  0  0  0  0  0  0  0  0  0  0
   10.7581   -3.1233   19.4720 N   0  0  0  0  0  0  0  0  0  0  0  0
    9.9571   -4.0573   16.8866 C   0  0  0  0  0  0  0  0  0  0  0  0
    7.6213   -6.5618   16.0087 C   0  0  0  0  0  0  0  0  0  0  0  0
   10.8583   -2.6527   20.7222 C   0  0  0  0  0  0  0  0  0  0  0  0
   10.6412   -3.5089   21.7936 C   0  0  0  0  0  0  0  0  0  0  0  0
   10.4972   -3.8968   24.1589 C   0  0  0  0  0  0  0  0  0  0  0  0
    5.9260   -8.2736   16.5517 C   0  0  0  0  0  0  0  0  0  0  0  0
    3.8816   -9.1166   17.2493 C   0  0  0  0  0  0  0  0  0  0  0  0
   10.1297   -1.6575   23.2324 C   0  0  0  0  0  0  0  0  0  0  0  0
    9.4684   -1.6929   26.7263 F   0  0  0  0  0  0  0  0  0  0  0  0
    7.7963   -7.7906   17.9837 C   0  0  0  0  0  0  0  0  0  0  0  0
   10.5884   -3.0725   16.7902 O   0  0  0  0  0  0  0  0  0  0  0  0
   10.4323   -5.3494   20.3516 C   0  0  0  0  0  0  0  0  0  0  0  0
    7.1156   -7.5454   16.8218 C   0  0  0  0  0  0  0  0  0  0  0  0
   10.3885   -4.4388   19.2773 C   0  0  0  0  0  0  0  0  0  0  0  0
    4.5160   -9.3822   15.0841 C   0  0  0  0  0  0  0  0  0  0  0  0
  1  3  4  0
  1 24  4  0
  2  6  4  0
  2 15  4  0
  3  5  4  0
  3  6  4  0
  4 21  4  0
  4 29  4  0
  5 15  4  0
  5 28  1  0
  6 16  4  0
  7 18  4  0
  7 26  4  0
  8 18  1  0
  8 19  4  0
  8 22  4  0
  9 12  4  0
  9 19  4  0
 10 12  4  0
 10 22  4  0
 11 20  4  0
 11 21  4  0
 12 23  1  0
 13 20  4  0
 13 29  4  0
 14 17  4  0
 14 28  4  0
 15 25  2  0
 16 27  4  0
 17 18  4  0
 20 27  1  0
 24 27  4  0
 26 28  4  0
M  END
$$$$

 Created by Python create_sdf_string function

 29 33  0  0  0  0  0  0  0  0999 V2000
    8.8270   -7.0288   18.4251 C   0  0  0  0  0  0  0  0  0  0  0  0
    9.1576   -4.6236   15.8860 O   0  0  0  0  0  0  0  0  0  0  0  0
    9.1509   -5.9108   17.7177 C   0  0  0  0  0  0  0  0  0  0  0  0
    3.6373   -9.5349   16.0582 N   0  0  0  0  0  0  0  0  0  0  0  0
    9.9275   -4.8001   18.0438 N   0  0  0  0  0  0  0  0  0  0  0  0
    8.5908   -5.7425   16.4412 C   0  0  0  0  0  0  0  0  0  0  0  0
   10.5993   -4.8981   21.6068 C   0  0  0  0  0  0  0  0  0  0  0  0
   10.4258   -3.0106   23.0998 C   0  0  0  0  0  0  0  0  0  0  0  0
   10.2148   -3.4364   25.4200 C   0  0  0  0  0  0  0  0  0  0  0  0
    9.7853   -1.1840   24.4927 C   0  0  0  0  0  0  0  0  0  0  0  0
    5.0276   -8.5227   17.5352 C   0  0  0  0  0  0  0  0  0  0  0  0
    9.8187   -2.0895   25.5800 C   0  0  0  0  0  0  0  0  0  0  0  0
    5.6473   -8.7216   15.3158 C   0  0  0  0  0  0  0  0  0  0  0  0
   10.7581   -3.1233   19.4720 N   0  0  0  0  0  0  0  0  0  0  0  0
    9.9571   -4.0573   16.8866 C   0  0  0  0  0  0  0  0  0  0  0  0
    7.6213   -6.5618   16.0087 C   0  0  0  0  0  0  0  0  0  0  0  0
   10.8583   -2.6527   20.7222 C   0  0  0  0  0  0  0  0  0  0  0  0
   10.6412   -3.5089   21.7936 C   0  0  0  0  0  0  0  0  0  0  0  0
   10.4972   -3.8968   24.1589 C   0  0  0  0  0  0  0  0  0  0  0  0
    5.9260   -8.2736   16.5517 C   0  0  0  0  0  0  0  0  0  0  0  0
    3.8816   -9.1166   17.2493 C   0  0  0  0  0  0  0  0  0  0  0  0
   10.1297   -1.6575   23.2324 C   0  0  0  0  0  0  0  0  0  0  0  0
    9.4684   -1.6929   26.7263 F   0  0  0  0  0  0  0  0  0  0  0  0
    7.7963   -7.7906   17.9837 C   0  0  0  0  0  0  0  0  0  0  0  0
   10.5884   -3.0725   16.7902 O   0  0  0  0  0  0  0  0  0  0  0  0
   10.4323   -5.3494   20.3516 C   0  0  0  0  0  0  0  0  0  0  0  0
    7.1156   -7.5454   16.8218 C   0  0  0  0  0  0  0  0  0  0  0  0
   10.3885   -4.4388   19.2773 C   0  0  0  0  0  0  0  0  0  0  0  0
    4.5160   -9.3822   15.0841 C   0  0  0  0  0  0  0  0  0  0  0  0
  1  3  4  0
  1 24  4  0
  2  6  4  0
  2 15  4  0
  3  5  4  0
  3  6  4  0
  4 21  4  0
  4 29  4  0
  5 15  4  0
  5 28  1  0
  6 16  4  0
  7 18  4  0
  7 26  4  0
  8 18  1  0
  8 19  4  0
  8 22  4  0
  9 12  4  0
  9 19  4  0
 10 12  4  0
 10 22  4  0
 11 20  4  0
 11 21  4  0
 12 23  1  0
 13 20  4  0
 13 29  4  0
 14 17  4  0
 14 28  4  0
 15 25  2  0
 16 27  4  0
 17 18  4  0
 20 27  1  0
 24 27  4  0
 26 28  4  0
M  END
$$$$

 Created by Python create_sdf_string function

 29 33  0  0  0  0  0  0  0  0999 V2000
    8.8270   -7.0288   18.4251 C   0  0  0  0  0  0  0  0  0  0  0  0
    9.1576   -4.6236   15.8860 O   0  0  0  0  0  0  0  0  0  0  0  0
    9.1509   -5.9108   17.7177 C   0  0  0  0  0  0  0  0  0  0  0  0
    3.6373   -9.5349   16.0582 N   0  0  0  0  0  0  0  0  0  0  0  0
    9.9275   -4.8001   18.0438 N   0  0  0  0  0  0  0  0  0  0  0  0
    8.5908   -5.7425   16.4412 C   0  0  0  0  0  0  0  0  0  0  0  0
   10.5993   -4.8981   21.6068 C   0  0  0  0  0  0  0  0  0  0  0  0
   10.4258   -3.0106   23.0998 C   0  0  0  0  0  0  0  0  0  0  0  0
   10.2148   -3.4364   25.4200 C   0  0  0  0  0  0  0  0  0  0  0  0
    9.7853   -1.1840   24.4927 C   0  0  0  0  0  0  0  0  0  0  0  0
    5.0276   -8.5227   17.5352 C   0  0  0  0  0  0  0  0  0  0  0  0
    9.8187   -2.0895   25.5800 C   0  0  0  0  0  0  0  0  0  0  0  0
    5.6473   -8.7216   15.3158 C   0  0  0  0  0  0  0  0  0  0  0  0
   10.7581   -3.1233   19.4720 N   0  0  0  0  0  0  0  0  0  0  0  0
    9.9571   -4.0573   16.8866 C   0  0  0  0  0  0  0  0  0  0  0  0
    7.6213   -6.5618   16.0087 C   0  0  0  0  0  0  0  0  0  0  0  0
   10.8583   -2.6527   20.7222 C   0  0  0  0  0  0  0  0  0  0  0  0
   10.6412   -3.5089   21.7936 C   0  0  0  0  0  0  0  0  0  0  0  0
   10.4972   -3.8968   24.1589 C   0  0  0  0  0  0  0  0  0  0  0  0
    5.9260   -8.2736   16.5517 C   0  0  0  0  0  0  0  0  0  0  0  0
    3.8816   -9.1166   17.2493 C   0  0  0  0  0  0  0  0  0  0  0  0
   10.1297   -1.6575   23.2324 C   0  0  0  0  0  0  0  0  0  0  0  0
    9.4684   -1.6929   26.7263 F   0  0  0  0  0  0  0  0  0  0  0  0
    7.7963   -7.7906   17.9837 C   0  0  0  0  0  0  0  0  0  0  0  0
   10.5884   -3.0725   16.7902 O   0  0  0  0  0  0  0  0  0  0  0  0
   10.4323   -5.3494   20.3516 C   0  0  0  0  0  0  0  0  0  0  0  0
    7.1156   -7.5454   16.8218 C   0  0  0  0  0  0  0  0  0  0  0  0
   10.3885   -4.4388   19.2773 C   0  0  0  0  0  0  0  0  0  0  0  0
    4.5160   -9.3822   15.0841 C   0  0  0  0  0  0  0  0  0  0  0  0
  1  3  4  0
  1 24  4  0
  2  6  4  0
  2 15  4  0
  3  5  4  0
  3  6  4  0
  4 21  4  0
  4 29  4  0
  5 15  4  0
  5 28  1  0
  6 16  4  0
  7 18  4  0
  7 26  4  0
  8 18  1  0
  8 19  4  0
  8 22  4  0
  9 12  4  0
  9 19  4  0
 10 12  4  0
 10 22  4  0
 11 20  4  0
 11 21  4  0
 12 23  1  0
 13 20  4  0
 13 29  4  0
 14 17  4  0
 14 28  4  0
 15 25  2  0
 16 27  4  0
 17 18  4  0
 20 27  1  0
 24 27  4  0
 26 28  4  0
M  END
$$$$

 Created by Python create_sdf_string function

 29 33  0  0  0  0  0  0  0  0999 V2000
    8.8270   -7.0288   18.4251 C   0  0  0  0  0  0  0  0  0  0  0  0
    9.1576   -4.6236   15.8860 O   0  0  0  0  0  0  0  0  0  0  0  0
    9.1509   -5.9108   17.7177 C   0  0  0  0  0  0  0  0  0  0  0  0
    3.6373   -9.5349   16.0582 N   0  0  0  0  0  0  0  0  0  0  0  0
    9.9275   -4.8001   18.0438 N   0  0  0  0  0  0  0  0  0  0  0  0
    8.5908   -5.7425   16.4412 C   0  0  0  0  0  0  0  0  0  0  0  0
   10.5993   -4.8981   21.6068 C   0  0  0  0  0  0  0  0  0  0  0  0
   10.4258   -3.0106   23.0998 C   0  0  0  0  0  0  0  0  0  0  0  0
   10.2148   -3.4364   25.4200 C   0  0  0  0  0  0  0  0  0  0  0  0
    9.7853   -1.1840   24.4927 C   0  0  0  0  0  0  0  0  0  0  0  0
    5.0276   -8.5227   17.5352 C   0  0  0  0  0  0  0  0  0  0  0  0
    9.8187   -2.0895   25.5800 C   0  0  0  0  0  0  0  0  0  0  0  0
    5.6473   -8.7216   15.3158 C   0  0  0  0  0  0  0  0  0  0  0  0
   10.7581   -3.1233   19.4720 N   0  0  0  0  0  0  0  0  0  0  0  0
    9.9571   -4.0573   16.8866 C   0  0  0  0  0  0  0  0  0  0  0  0
    7.6213   -6.5618   16.0087 C   0  0  0  0  0  0  0  0  0  0  0  0
   10.8583   -2.6527   20.7222 C   0  0  0  0  0  0  0  0  0  0  0  0
   10.6412   -3.5089   21.7936 C   0  0  0  0  0  0  0  0  0  0  0  0
   10.4972   -3.8968   24.1589 C   0  0  0  0  0  0  0  0  0  0  0  0
    5.9260   -8.2736   16.5517 C   0  0  0  0  0  0  0  0  0  0  0  0
    3.8816   -9.1166   17.2493 C   0  0  0  0  0  0  0  0  0  0  0  0
   10.1297   -1.6575   23.2324 C   0  0  0  0  0  0  0  0  0  0  0  0
    9.4684   -1.6929   26.7263 F   0  0  0  0  0  0  0  0  0  0  0  0
    7.7963   -7.7906   17.9837 C   0  0  0  0  0  0  0  0  0  0  0  0
   10.5884   -3.0725   16.7902 O   0  0  0  0  0  0  0  0  0  0  0  0
   10.4323   -5.3494   20.3516 C   0  0  0  0  0  0  0  0  0  0  0  0
    7.1156   -7.5454   16.8218 C   0  0  0  0  0  0  0  0  0  0  0  0
   10.3885   -4.4388   19.2773 C   0  0  0  0  0  0  0  0  0  0  0  0
    4.5160   -9.3822   15.0841 C   0  0  0  0  0  0  0  0  0  0  0  0
  1  3  4  0
  1 24  4  0
  2  6  4  0
  2 15  4  0
  3  5  4  0
  3  6  4  0
  4 21  4  0
  4 29  4  0
  5 15  4  0
  5 28  1  0
  6 16  4  0
  7 18  4  0
  7 26  4  0
  8 18  1  0
  8 19  4  0
  8 22  4  0
  9 12  4  0
  9 19  4  0
 10 12  4  0
 10 22  4  0
 11 20  4  0
 11 21  4  0
 12 23  1  0
 13 20  4  0
 13 29  4  0
 14 17  4  0
 14 28  4  0
 15 25  2  0
 16 27  4  0
 17 18  4  0
 20 27  1  0
 24 27  4  0
 26 28  4  0
M  END
$$$$

 Created by Python create_sdf_string function

 29 33  0  0  0  0  0  0  0  0999 V2000
    8.8270   -7.0288   18.4251 C   0  0  0  0  0  0  0  0  0  0  0  0
    9.1576   -4.6236   15.8860 O   0  0  0  0  0  0  0  0  0  0  0  0
    9.1509   -5.9108   17.7177 C   0  0  0  0  0  0  0  0  0  0  0  0
    3.6373   -9.5349   16.0582 N   0  0  0  0  0  0  0  0  0  0  0  0
    9.9275   -4.8001   18.0438 N   0  0  0  0  0  0  0  0  0  0  0  0
    8.5908   -5.7425   16.4412 C   0  0  0  0  0  0  0  0  0  0  0  0
   10.5993   -4.8981   21.6068 C   0  0  0  0  0  0  0  0  0  0  0  0
   10.4258   -3.0106   23.0998 C   0  0  0  0  0  0  0  0  0  0  0  0
   10.2148   -3.4364   25.4200 C   0  0  0  0  0  0  0  0  0  0  0  0
    9.7853   -1.1840   24.4927 C   0  0  0  0  0  0  0  0  0  0  0  0
    5.0276   -8.5227   17.5352 C   0  0  0  0  0  0  0  0  0  0  0  0
    9.8187   -2.0895   25.5800 C   0  0  0  0  0  0  0  0  0  0  0  0
    5.6473   -8.7216   15.3158 C   0  0  0  0  0  0  0  0  0  0  0  0
   10.7581   -3.1233   19.4720 N   0  0  0  0  0  0  0  0  0  0  0  0
    9.9571   -4.0573   16.8866 C   0  0  0  0  0  0  0  0  0  0  0  0
    7.6213   -6.5618   16.0087 C   0  0  0  0  0  0  0  0  0  0  0  0
   10.8583   -2.6527   20.7222 C   0  0  0  0  0  0  0  0  0  0  0  0
   10.6412   -3.5089   21.7936 C   0  0  0  0  0  0  0  0  0  0  0  0
   10.4972   -3.8968   24.1589 C   0  0  0  0  0  0  0  0  0  0  0  0
    5.9260   -8.2736   16.5517 C   0  0  0  0  0  0  0  0  0  0  0  0
    3.8816   -9.1166   17.2493 C   0  0  0  0  0  0  0  0  0  0  0  0
   10.1297   -1.6575   23.2324 C   0  0  0  0  0  0  0  0  0  0  0  0
    9.4684   -1.6929   26.7263 F   0  0  0  0  0  0  0  0  0  0  0  0
    7.7963   -7.7906   17.9837 C   0  0  0  0  0  0  0  0  0  0  0  0
   10.5884   -3.0725   16.7902 O   0  0  0  0  0  0  0  0  0  0  0  0
   10.4323   -5.3494   20.3516 C   0  0  0  0  0  0  0  0  0  0  0  0
    7.1156   -7.5454   16.8218 C   0  0  0  0  0  0  0  0  0  0  0  0
   10.3885   -4.4388   19.2773 C   0  0  0  0  0  0  0  0  0  0  0  0
    4.5160   -9.3822   15.0841 C   0  0  0  0  0  0  0  0  0  0  0  0
  1  3  4  0
  1 24  4  0
  2  6  4  0
  2 15  4  0
  3  5  4  0
  3  6  4  0
  4 21  4  0
  4 29  4  0
  5 15  4  0
  5 28  1  0
  6 16  4  0
  7 18  4  0
  7 26  4  0
  8 18  1  0
  8 19  4  0
  8 22  4  0
  9 12  4  0
  9 19  4  0
 10 12  4  0
 10 22  4  0
 11 20  4  0
 11 21  4  0
 12 23  1  0
 13 20  4  0
 13 29  4  0
 14 17  4  0
 14 28  4  0
 15 25  2  0
 16 27  4  0
 17 18  4  0
 20 27  1  0
 24 27  4  0
 26 28  4  0
M  END
$$$$

 Created by Python create_sdf_string function

 29 33  0  0  0  0  0  0  0  0999 V2000
    8.8270   -7.0288   18.4251 C   0  0  0  0  0  0  0  0  0  0  0  0
    9.1576   -4.6236   15.8860 O   0  0  0  0  0  0  0  0  0  0  0  0
    9.1509   -5.9108   17.7177 C   0  0  0  0  0  0  0  0  0  0  0  0
    3.6373   -9.5349   16.0582 N   0  0  0  0  0  0  0  0  0  0  0  0
    9.9275   -4.8001   18.0438 N   0  0  0  0  0  0  0  0  0  0  0  0
    8.5908   -5.7425   16.4412 C   0  0  0  0  0  0  0  0  0  0  0  0
   10.5993   -4.8981   21.6068 C   0  0  0  0  0  0  0  0  0  0  0  0
   10.4258   -3.0106   23.0998 C   0  0  0  0  0  0  0  0  0  0  0  0
   10.2148   -3.4364   25.4200 C   0  0  0  0  0  0  0  0  0  0  0  0
    9.7853   -1.1840   24.4927 C   0  0  0  0  0  0  0  0  0  0  0  0
    5.0276   -8.5227   17.5352 C   0  0  0  0  0  0  0  0  0  0  0  0
    9.8187   -2.0895   25.5800 C   0  0  0  0  0  0  0  0  0  0  0  0
    5.6473   -8.7216   15.3158 C   0  0  0  0  0  0  0  0  0  0  0  0
   10.7581   -3.1233   19.4720 N   0  0  0  0  0  0  0  0  0  0  0  0
    9.9571   -4.0573   16.8866 C   0  0  0  0  0  0  0  0  0  0  0  0
    7.6213   -6.5618   16.0087 C   0  0  0  0  0  0  0  0  0  0  0  0
   10.8583   -2.6527   20.7222 C   0  0  0  0  0  0  0  0  0  0  0  0
   10.6412   -3.5089   21.7936 C   0  0  0  0  0  0  0  0  0  0  0  0
   10.4972   -3.8968   24.1589 C   0  0  0  0  0  0  0  0  0  0  0  0
    5.9260   -8.2736   16.5517 C   0  0  0  0  0  0  0  0  0  0  0  0
    3.8816   -9.1166   17.2493 C   0  0  0  0  0  0  0  0  0  0  0  0
   10.1297   -1.6575   23.2324 C   0  0  0  0  0  0  0  0  0  0  0  0
    9.4684   -1.6929   26.7263 F   0  0  0  0  0  0  0  0  0  0  0  0
    7.7963   -7.7906   17.9837 C   0  0  0  0  0  0  0  0  0  0  0  0
   10.5884   -3.0725   16.7902 O   0  0  0  0  0  0  0  0  0  0  0  0
   10.4323   -5.3494   20.3516 C   0  0  0  0  0  0  0  0  0  0  0  0
    7.1156   -7.5454   16.8218 C   0  0  0  0  0  0  0  0  0  0  0  0
   10.3885   -4.4388   19.2773 C   0  0  0  0  0  0  0  0  0  0  0  0
    4.5160   -9.3822   15.0841 C   0  0  0  0  0  0  0  0  0  0  0  0
  1  3  4  0
  1 24  4  0
  2  6  4  0
  2 15  4  0
  3  5  4  0
  3  6  4  0
  4 21  4  0
  4 29  4  0
  5 15  4  0
  5 28  1  0
  6 16  4  0
  7 18  4  0
  7 26  4  0
  8 18  1  0
  8 19  4  0
  8 22  4  0
  9 12  4  0
  9 19  4  0
 10 12  4  0
 10 22  4  0
 11 20  4  0
 11 21  4  0
 12 23  1  0
 13 20  4  0
 13 29  4  0
 14 17  4  0
 14 28  4  0
 15 25  2  0
 16 27  4  0
 17 18  4  0
 20 27  1  0
 24 27  4  0
 26 28  4  0
M  END
$$$$

 Created by Python create_sdf_string function

 29 33  0  0  0  0  0  0  0  0999 V2000
    8.8270   -7.0288   18.4251 C   0  0  0  0  0  0  0  0  0  0  0  0
    9.1576   -4.6236   15.8860 O   0  0  0  0  0  0  0  0  0  0  0  0
    9.1509   -5.9108   17.7177 C   0  0  0  0  0  0  0  0  0  0  0  0
    3.6373   -9.5349   16.0582 N   0  0  0  0  0  0  0  0  0  0  0  0
    9.9275   -4.8001   18.0438 N   0  0  0  0  0  0  0  0  0  0  0  0
    8.5908   -5.7425   16.4412 C   0  0  0  0  0  0  0  0  0  0  0  0
   10.5993   -4.8981   21.6068 C   0  0  0  0  0  0  0  0  0  0  0  0
   10.4258   -3.0106   23.0998 C   0  0  0  0  0  0  0  0  0  0  0  0
   10.2148   -3.4364   25.4200 C   0  0  0  0  0  0  0  0  0  0  0  0
    9.7853   -1.1840   24.4927 C   0  0  0  0  0  0  0  0  0  0  0  0
    5.0276   -8.5227   17.5352 C   0  0  0  0  0  0  0  0  0  0  0  0
    9.8187   -2.0895   25.5800 C   0  0  0  0  0  0  0  0  0  0  0  0
    5.6473   -8.7216   15.3158 C   0  0  0  0  0  0  0  0  0  0  0  0
   10.7581   -3.1233   19.4720 N   0  0  0  0  0  0  0  0  0  0  0  0
    9.9571   -4.0573   16.8866 C   0  0  0  0  0  0  0  0  0  0  0  0
    7.6213   -6.5618   16.0087 C   0  0  0  0  0  0  0  0  0  0  0  0
   10.8583   -2.6527   20.7222 C   0  0  0  0  0  0  0  0  0  0  0  0
   10.6412   -3.5089   21.7936 C   0  0  0  0  0  0  0  0  0  0  0  0
   10.4972   -3.8968   24.1589 C   0  0  0  0  0  0  0  0  0  0  0  0
    5.9260   -8.2736   16.5517 C   0  0  0  0  0  0  0  0  0  0  0  0
    3.8816   -9.1166   17.2493 C   0  0  0  0  0  0  0  0  0  0  0  0
   10.1297   -1.6575   23.2324 C   0  0  0  0  0  0  0  0  0  0  0  0
    9.4684   -1.6929   26.7263 F   0  0  0  0  0  0  0  0  0  0  0  0
    7.7963   -7.7906   17.9837 C   0  0  0  0  0  0  0  0  0  0  0  0
   10.5884   -3.0725   16.7902 O   0  0  0  0  0  0  0  0  0  0  0  0
   10.4323   -5.3494   20.3516 C   0  0  0  0  0  0  0  0  0  0  0  0
    7.1156   -7.5454   16.8218 C   0  0  0  0  0  0  0  0  0  0  0  0
   10.3885   -4.4388   19.2773 C   0  0  0  0  0  0  0  0  0  0  0  0
    4.5160   -9.3822   15.0841 C   0  0  0  0  0  0  0  0  0  0  0  0
  1  3  4  0
  1 24  4  0
  2  6  4  0
  2 15  4  0
  3  5  4  0
  3  6  4  0
  4 21  4  0
  4 29  4  0
  5 15  4  0
  5 28  1  0
  6 16  4  0
  7 18  4  0
  7 26  4  0
  8 18  1  0
  8 19  4  0
  8 22  4  0
  9 12  4  0
  9 19  4  0
 10 12  4  0
 10 22  4  0
 11 20  4  0
 11 21  4  0
 12 23  1  0
 13 20  4  0
 13 29  4  0
 14 17  4  0
 14 28  4  0
 15 25  2  0
 16 27  4  0
 17 18  4  0
 20 27  1  0
 24 27  4  0
 26 28  4  0
M  END
$$$$

 Created by Python create_sdf_string function

 29 33  0  0  0  0  0  0  0  0999 V2000
    8.8270   -7.0288   18.4251 C   0  0  0  0  0  0  0  0  0  0  0  0
    9.1576   -4.6236   15.8860 O   0  0  0  0  0  0  0  0  0  0  0  0
    9.1509   -5.9108   17.7177 C   0  0  0  0  0  0  0  0  0  0  0  0
    3.6373   -9.5349   16.0582 N   0  0  0  0  0  0  0  0  0  0  0  0
    9.9275   -4.8001   18.0438 N   0  0  0  0  0  0  0  0  0  0  0  0
    8.5908   -5.7425   16.4412 C   0  0  0  0  0  0  0  0  0  0  0  0
   10.5993   -4.8981   21.6068 C   0  0  0  0  0  0  0  0  0  0  0  0
   10.4258   -3.0106   23.0998 C   0  0  0  0  0  0  0  0  0  0  0  0
   10.2148   -3.4364   25.4200 C   0  0  0  0  0  0  0  0  0  0  0  0
    9.7853   -1.1840   24.4927 C   0  0  0  0  0  0  0  0  0  0  0  0
    5.0276   -8.5227   17.5352 C   0  0  0  0  0  0  0  0  0  0  0  0
    9.8187   -2.0895   25.5800 C   0  0  0  0  0  0  0  0  0  0  0  0
    5.6473   -8.7216   15.3158 C   0  0  0  0  0  0  0  0  0  0  0  0
   10.7581   -3.1233   19.4720 N   0  0  0  0  0  0  0  0  0  0  0  0
    9.9571   -4.0573   16.8866 C   0  0  0  0  0  0  0  0  0  0  0  0
    7.6213   -6.5618   16.0087 C   0  0  0  0  0  0  0  0  0  0  0  0
   10.8583   -2.6527   20.7222 C   0  0  0  0  0  0  0  0  0  0  0  0
   10.6412   -3.5089   21.7936 C   0  0  0  0  0  0  0  0  0  0  0  0
   10.4972   -3.8968   24.1589 C   0  0  0  0  0  0  0  0  0  0  0  0
    5.9260   -8.2736   16.5517 C   0  0  0  0  0  0  0  0  0  0  0  0
    3.8816   -9.1166   17.2493 C   0  0  0  0  0  0  0  0  0  0  0  0
   10.1297   -1.6575   23.2324 C   0  0  0  0  0  0  0  0  0  0  0  0
    9.4684   -1.6929   26.7263 F   0  0  0  0  0  0  0  0  0  0  0  0
    7.7963   -7.7906   17.9837 C   0  0  0  0  0  0  0  0  0  0  0  0
   10.5884   -3.0725   16.7902 O   0  0  0  0  0  0  0  0  0  0  0  0
   10.4323   -5.3494   20.3516 C   0  0  0  0  0  0  0  0  0  0  0  0
    7.1156   -7.5454   16.8218 C   0  0  0  0  0  0  0  0  0  0  0  0
   10.3885   -4.4388   19.2773 C   0  0  0  0  0  0  0  0  0  0  0  0
    4.5160   -9.3822   15.0841 C   0  0  0  0  0  0  0  0  0  0  0  0
  1  3  4  0
  1 24  4  0
  2  6  4  0
  2 15  4  0
  3  5  4  0
  3  6  4  0
  4 21  4  0
  4 29  4  0
  5 15  4  0
  5 28  1  0
  6 16  4  0
  7 18  4  0
  7 26  4  0
  8 18  1  0
  8 19  4  0
  8 22  4  0
  9 12  4  0
  9 19  4  0
 10 12  4  0
 10 22  4  0
 11 20  4  0
 11 21  4  0
 12 23  1  0
 13 20  4  0
 13 29  4  0
 14 17  4  0
 14 28  4  0
 15 25  2  0
 16 27  4  0
 17 18  4  0
 20 27  1  0
 24 27  4  0
 26 28  4  0
M  END
$$$$

 Created by Python create_sdf_string function

 29 33  0  0  0  0  0  0  0  0999 V2000
    8.8270   -7.0288   18.4251 C   0  0  0  0  0  0  0  0  0  0  0  0
    9.1576   -4.6236   15.8860 O   0  0  0  0  0  0  0  0  0  0  0  0
    9.1509   -5.9108   17.7177 C   0  0  0  0  0  0  0  0  0  0  0  0
    3.6373   -9.5349   16.0582 N   0  0  0  0  0  0  0  0  0  0  0  0
    9.9275   -4.8001   18.0438 N   0  0  0  0  0  0  0  0  0  0  0  0
    8.5908   -5.7425   16.4412 C   0  0  0  0  0  0  0  0  0  0  0  0
   10.5993   -4.8981   21.6068 C   0  0  0  0  0  0  0  0  0  0  0  0
   10.4258   -3.0106   23.0998 C   0  0  0  0  0  0  0  0  0  0  0  0
   10.2148   -3.4364   25.4200 C   0  0  0  0  0  0  0  0  0  0  0  0
    9.7853   -1.1840   24.4927 C   0  0  0  0  0  0  0  0  0  0  0  0
    5.0276   -8.5227   17.5352 C   0  0  0  0  0  0  0  0  0  0  0  0
    9.8187   -2.0895   25.5800 C   0  0  0  0  0  0  0  0  0  0  0  0
    5.6473   -8.7216   15.3158 C   0  0  0  0  0  0  0  0  0  0  0  0
   10.7581   -3.1233   19.4720 N   0  0  0  0  0  0  0  0  0  0  0  0
    9.9571   -4.0573   16.8866 C   0  0  0  0  0  0  0  0  0  0  0  0
    7.6213   -6.5618   16.0087 C   0  0  0  0  0  0  0  0  0  0  0  0
   10.8583   -2.6527   20.7222 C   0  0  0  0  0  0  0  0  0  0  0  0
   10.6412   -3.5089   21.7936 C   0  0  0  0  0  0  0  0  0  0  0  0
   10.4972   -3.8968   24.1589 C   0  0  0  0  0  0  0  0  0  0  0  0
    5.9260   -8.2736   16.5517 C   0  0  0  0  0  0  0  0  0  0  0  0
    3.8816   -9.1166   17.2493 C   0  0  0  0  0  0  0  0  0  0  0  0
   10.1297   -1.6575   23.2324 C   0  0  0  0  0  0  0  0  0  0  0  0
    9.4684   -1.6929   26.7263 F   0  0  0  0  0  0  0  0  0  0  0  0
    7.7963   -7.7906   17.9837 C   0  0  0  0  0  0  0  0  0  0  0  0
   10.5884   -3.0725   16.7902 O   0  0  0  0  0  0  0  0  0  0  0  0
   10.4323   -5.3494   20.3516 C   0  0  0  0  0  0  0  0  0  0  0  0
    7.1156   -7.5454   16.8218 C   0  0  0  0  0  0  0  0  0  0  0  0
   10.3885   -4.4388   19.2773 C   0  0  0  0  0  0  0  0  0  0  0  0
    4.5160   -9.3822   15.0841 C   0  0  0  0  0  0  0  0  0  0  0  0
  1  3  4  0
  1 24  4  0
  2  6  4  0
  2 15  4  0
  3  5  4  0
  3  6  4  0
  4 21  4  0
  4 29  4  0
  5 15  4  0
  5 28  1  0
  6 16  4  0
  7 18  4  0
  7 26  4  0
  8 18  1  0
  8 19  4  0
  8 22  4  0
  9 12  4  0
  9 19  4  0
 10 12  4  0
 10 22  4  0
 11 20  4  0
 11 21  4  0
 12 23  1  0
 13 20  4  0
 13 29  4  0
 14 17  4  0
 14 28  4  0
 15 25  2  0
 16 27  4  0
 17 18  4  0
 20 27  1  0
 24 27  4  0
 26 28  4  0
M  END
$$$$

 Created by Python create_sdf_string function

 29 33  0  0  0  0  0  0  0  0999 V2000
    8.8270   -7.0288   18.4251 C   0  0  0  0  0  0  0  0  0  0  0  0
    9.1576   -4.6236   15.8860 O   0  0  0  0  0  0  0  0  0  0  0  0
    9.1509   -5.9108   17.7177 C   0  0  0  0  0  0  0  0  0  0  0  0
    3.6373   -9.5349   16.0582 N   0  0  0  0  0  0  0  0  0  0  0  0
    9.9275   -4.8001   18.0438 N   0  0  0  0  0  0  0  0  0  0  0  0
    8.5908   -5.7425   16.4412 C   0  0  0  0  0  0  0  0  0  0  0  0
   10.5993   -4.8981   21.6068 C   0  0  0  0  0  0  0  0  0  0  0  0
   10.4258   -3.0106   23.0998 C   0  0  0  0  0  0  0  0  0  0  0  0
   10.2148   -3.4364   25.4200 C   0  0  0  0  0  0  0  0  0  0  0  0
    9.7853   -1.1840   24.4927 C   0  0  0  0  0  0  0  0  0  0  0  0
    5.0276   -8.5227   17.5352 C   0  0  0  0  0  0  0  0  0  0  0  0
    9.8187   -2.0895   25.5800 C   0  0  0  0  0  0  0  0  0  0  0  0
    5.6473   -8.7216   15.3158 C   0  0  0  0  0  0  0  0  0  0  0  0
   10.7581   -3.1233   19.4720 N   0  0  0  0  0  0  0  0  0  0  0  0
    9.9571   -4.0573   16.8866 C   0  0  0  0  0  0  0  0  0  0  0  0
    7.6213   -6.5618   16.0087 C   0  0  0  0  0  0  0  0  0  0  0  0
   10.8583   -2.6527   20.7222 C   0  0  0  0  0  0  0  0  0  0  0  0
   10.6412   -3.5089   21.7936 C   0  0  0  0  0  0  0  0  0  0  0  0
   10.4972   -3.8968   24.1589 C   0  0  0  0  0  0  0  0  0  0  0  0
    5.9260   -8.2736   16.5517 C   0  0  0  0  0  0  0  0  0  0  0  0
    3.8816   -9.1166   17.2493 C   0  0  0  0  0  0  0  0  0  0  0  0
   10.1297   -1.6575   23.2324 C   0  0  0  0  0  0  0  0  0  0  0  0
    9.4684   -1.6929   26.7263 F   0  0  0  0  0  0  0  0  0  0  0  0
    7.7963   -7.7906   17.9837 C   0  0  0  0  0  0  0  0  0  0  0  0
   10.5884   -3.0725   16.7902 O   0  0  0  0  0  0  0  0  0  0  0  0
   10.4323   -5.3494   20.3516 C   0  0  0  0  0  0  0  0  0  0  0  0
    7.1156   -7.5454   16.8218 C   0  0  0  0  0  0  0  0  0  0  0  0
   10.3885   -4.4388   19.2773 C   0  0  0  0  0  0  0  0  0  0  0  0
    4.5160   -9.3822   15.0841 C   0  0  0  0  0  0  0  0  0  0  0  0
  1  3  4  0
  1 24  4  0
  2  6  4  0
  2 15  4  0
  3  5  4  0
  3  6  4  0
  4 21  4  0
  4 29  4  0
  5 15  4  0
  5 28  1  0
  6 16  4  0
  7 18  4  0
  7 26  4  0
  8 18  1  0
  8 19  4  0
  8 22  4  0
  9 12  4  0
  9 19  4  0
 10 12  4  0
 10 22  4  0
 11 20  4  0
 11 21  4  0
 12 23  1  0
 13 20  4  0
 13 29  4  0
 14 17  4  0
 14 28  4  0
 15 25  2  0
 16 27  4  0
 17 18  4  0
 20 27  1  0
 24 27  4  0
 26 28  4  0
M  END
$$$$

 Created by Python create_sdf_string function

 29 33  0  0  0  0  0  0  0  0999 V2000
    8.8270   -7.0288   18.4251 C   0  0  0  0  0  0  0  0  0  0  0  0
    9.1576   -4.6236   15.8860 O   0  0  0  0  0  0  0  0  0  0  0  0
    9.1509   -5.9108   17.7177 C   0  0  0  0  0  0  0  0  0  0  0  0
    3.6373   -9.5349   16.0582 N   0  0  0  0  0  0  0  0  0  0  0  0
    9.9275   -4.8001   18.0438 N   0  0  0  0  0  0  0  0  0  0  0  0
    8.5908   -5.7425   16.4412 C   0  0  0  0  0  0  0  0  0  0  0  0
   10.5993   -4.8981   21.6068 C   0  0  0  0  0  0  0  0  0  0  0  0
   10.4258   -3.0106   23.0998 C   0  0  0  0  0  0  0  0  0  0  0  0
   10.2148   -3.4364   25.4200 C   0  0  0  0  0  0  0  0  0  0  0  0
    9.7853   -1.1840   24.4927 C   0  0  0  0  0  0  0  0  0  0  0  0
    5.0276   -8.5227   17.5352 C   0  0  0  0  0  0  0  0  0  0  0  0
    9.8187   -2.0895   25.5800 C   0  0  0  0  0  0  0  0  0  0  0  0
    5.6473   -8.7216   15.3158 C   0  0  0  0  0  0  0  0  0  0  0  0
   10.7581   -3.1233   19.4720 N   0  0  0  0  0  0  0  0  0  0  0  0
    9.9571   -4.0573   16.8866 C   0  0  0  0  0  0  0  0  0  0  0  0
    7.6213   -6.5618   16.0087 C   0  0  0  0  0  0  0  0  0  0  0  0
   10.8583   -2.6527   20.7222 C   0  0  0  0  0  0  0  0  0  0  0  0
   10.6412   -3.5089   21.7936 C   0  0  0  0  0  0  0  0  0  0  0  0
   10.4972   -3.8968   24.1589 C   0  0  0  0  0  0  0  0  0  0  0  0
    5.9260   -8.2736   16.5517 C   0  0  0  0  0  0  0  0  0  0  0  0
    3.8816   -9.1166   17.2493 C   0  0  0  0  0  0  0  0  0  0  0  0
   10.1297   -1.6575   23.2324 C   0  0  0  0  0  0  0  0  0  0  0  0
    9.4684   -1.6929   26.7263 F   0  0  0  0  0  0  0  0  0  0  0  0
    7.7963   -7.7906   17.9837 C   0  0  0  0  0  0  0  0  0  0  0  0
   10.5884   -3.0725   16.7902 O   0  0  0  0  0  0  0  0  0  0  0  0
   10.4323   -5.3494   20.3516 C   0  0  0  0  0  0  0  0  0  0  0  0
    7.1156   -7.5454   16.8218 C   0  0  0  0  0  0  0  0  0  0  0  0
   10.3885   -4.4388   19.2773 C   0  0  0  0  0  0  0  0  0  0  0  0
    4.5160   -9.3822   15.0841 C   0  0  0  0  0  0  0  0  0  0  0  0
  1  3  4  0
  1 24  4  0
  2  6  4  0
  2 15  4  0
  3  5  4  0
  3  6  4  0
  4 21  4  0
  4 29  4  0
  5 15  4  0
  5 28  1  0
  6 16  4  0
  7 18  4  0
  7 26  4  0
  8 18  1  0
  8 19  4  0
  8 22  4  0
  9 12  4  0
  9 19  4  0
 10 12  4  0
 10 22  4  0
 11 20  4  0
 11 21  4  0
 12 23  1  0
 13 20  4  0
 13 29  4  0
 14 17  4  0
 14 28  4  0
 15 25  2  0
 16 27  4  0
 17 18  4  0
 20 27  1  0
 24 27  4  0
 26 28  4  0
M  END
$$$$

 Created by Python create_sdf_string function

 29 33  0  0  0  0  0  0  0  0999 V2000
    8.8270   -7.0288   18.4251 C   0  0  0  0  0  0  0  0  0  0  0  0
    9.1576   -4.6236   15.8860 O   0  0  0  0  0  0  0  0  0  0  0  0
    9.1509   -5.9108   17.7177 C   0  0  0  0  0  0  0  0  0  0  0  0
    3.6373   -9.5349   16.0582 N   0  0  0  0  0  0  0  0  0  0  0  0
    9.9275   -4.8001   18.0438 N   0  0  0  0  0  0  0  0  0  0  0  0
    8.5908   -5.7425   16.4412 C   0  0  0  0  0  0  0  0  0  0  0  0
   10.5993   -4.8981   21.6068 C   0  0  0  0  0  0  0  0  0  0  0  0
   10.4258   -3.0106   23.0998 C   0  0  0  0  0  0  0  0  0  0  0  0
   10.2148   -3.4364   25.4200 C   0  0  0  0  0  0  0  0  0  0  0  0
    9.7853   -1.1840   24.4927 C   0  0  0  0  0  0  0  0  0  0  0  0
    5.0276   -8.5227   17.5352 C   0  0  0  0  0  0  0  0  0  0  0  0
    9.8187   -2.0895   25.5800 C   0  0  0  0  0  0  0  0  0  0  0  0
    5.6473   -8.7216   15.3158 C   0  0  0  0  0  0  0  0  0  0  0  0
   10.7581   -3.1233   19.4720 N   0  0  0  0  0  0  0  0  0  0  0  0
    9.9571   -4.0573   16.8866 C   0  0  0  0  0  0  0  0  0  0  0  0
    7.6213   -6.5618   16.0087 C   0  0  0  0  0  0  0  0  0  0  0  0
   10.8583   -2.6527   20.7222 C   0  0  0  0  0  0  0  0  0  0  0  0
   10.6412   -3.5089   21.7936 C   0  0  0  0  0  0  0  0  0  0  0  0
   10.4972   -3.8968   24.1589 C   0  0  0  0  0  0  0  0  0  0  0  0
    5.9260   -8.2736   16.5517 C   0  0  0  0  0  0  0  0  0  0  0  0
    3.8816   -9.1166   17.2493 C   0  0  0  0  0  0  0  0  0  0  0  0
   10.1297   -1.6575   23.2324 C   0  0  0  0  0  0  0  0  0  0  0  0
    9.4684   -1.6929   26.7263 F   0  0  0  0  0  0  0  0  0  0  0  0
    7.7963   -7.7906   17.9837 C   0  0  0  0  0  0  0  0  0  0  0  0
   10.5884   -3.0725   16.7902 O   0  0  0  0  0  0  0  0  0  0  0  0
   10.4323   -5.3494   20.3516 C   0  0  0  0  0  0  0  0  0  0  0  0
    7.1156   -7.5454   16.8218 C   0  0  0  0  0  0  0  0  0  0  0  0
   10.3885   -4.4388   19.2773 C   0  0  0  0  0  0  0  0  0  0  0  0
    4.5160   -9.3822   15.0841 C   0  0  0  0  0  0  0  0  0  0  0  0
  1  3  4  0
  1 24  4  0
  2  6  4  0
  2 15  4  0
  3  5  4  0
  3  6  4  0
  4 21  4  0
  4 29  4  0
  5 15  4  0
  5 28  1  0
  6 16  4  0
  7 18  4  0
  7 26  4  0
  8 18  1  0
  8 19  4  0
  8 22  4  0
  9 12  4  0
  9 19  4  0
 10 12  4  0
 10 22  4  0
 11 20  4  0
 11 21  4  0
 12 23  1  0
 13 20  4  0
 13 29  4  0
 14 17  4  0
 14 28  4  0
 15 25  2  0
 16 27  4  0
 17 18  4  0
 20 27  1  0
 24 27  4  0
 26 28  4  0
M  END
$$$$

 Created by Python create_sdf_string function

 29 33  0  0  0  0  0  0  0  0999 V2000
    8.8270   -7.0288   18.4251 C   0  0  0  0  0  0  0  0  0  0  0  0
    9.1576   -4.6236   15.8860 O   0  0  0  0  0  0  0  0  0  0  0  0
    9.1509   -5.9108   17.7177 C   0  0  0  0  0  0  0  0  0  0  0  0
    3.6373   -9.5349   16.0582 N   0  0  0  0  0  0  0  0  0  0  0  0
    9.9275   -4.8001   18.0438 N   0  0  0  0  0  0  0  0  0  0  0  0
    8.5908   -5.7425   16.4412 C   0  0  0  0  0  0  0  0  0  0  0  0
   10.5993   -4.8981   21.6068 C   0  0  0  0  0  0  0  0  0  0  0  0
   10.4258   -3.0106   23.0998 C   0  0  0  0  0  0  0  0  0  0  0  0
   10.2148   -3.4364   25.4200 C   0  0  0  0  0  0  0  0  0  0  0  0
    9.7853   -1.1840   24.4927 C   0  0  0  0  0  0  0  0  0  0  0  0
    5.0276   -8.5227   17.5352 C   0  0  0  0  0  0  0  0  0  0  0  0
    9.8187   -2.0895   25.5800 C   0  0  0  0  0  0  0  0  0  0  0  0
    5.6473   -8.7216   15.3158 C   0  0  0  0  0  0  0  0  0  0  0  0
   10.7581   -3.1233   19.4720 N   0  0  0  0  0  0  0  0  0  0  0  0
    9.9571   -4.0573   16.8866 C   0  0  0  0  0  0  0  0  0  0  0  0
    7.6213   -6.5618   16.0087 C   0  0  0  0  0  0  0  0  0  0  0  0
   10.8583   -2.6527   20.7222 C   0  0  0  0  0  0  0  0  0  0  0  0
   10.6412   -3.5089   21.7936 C   0  0  0  0  0  0  0  0  0  0  0  0
   10.4972   -3.8968   24.1589 C   0  0  0  0  0  0  0  0  0  0  0  0
    5.9260   -8.2736   16.5517 C   0  0  0  0  0  0  0  0  0  0  0  0
    3.8816   -9.1166   17.2493 C   0  0  0  0  0  0  0  0  0  0  0  0
   10.1297   -1.6575   23.2324 C   0  0  0  0  0  0  0  0  0  0  0  0
    9.4684   -1.6929   26.7263 F   0  0  0  0  0  0  0  0  0  0  0  0
    7.7963   -7.7906   17.9837 C   0  0  0  0  0  0  0  0  0  0  0  0
   10.5884   -3.0725   16.7902 O   0  0  0  0  0  0  0  0  0  0  0  0
   10.4323   -5.3494   20.3516 C   0  0  0  0  0  0  0  0  0  0  0  0
    7.1156   -7.5454   16.8218 C   0  0  0  0  0  0  0  0  0  0  0  0
   10.3885   -4.4388   19.2773 C   0  0  0  0  0  0  0  0  0  0  0  0
    4.5160   -9.3822   15.0841 C   0  0  0  0  0  0  0  0  0  0  0  0
  1  3  4  0
  1 24  4  0
  2  6  4  0
  2 15  4  0
  3  5  4  0
  3  6  4  0
  4 21  4  0
  4 29  4  0
  5 15  4  0
  5 28  1  0
  6 16  4  0
  7 18  4  0
  7 26  4  0
  8 18  1  0
  8 19  4  0
  8 22  4  0
  9 12  4  0
  9 19  4  0
 10 12  4  0
 10 22  4  0
 11 20  4  0
 11 21  4  0
 12 23  1  0
 13 20  4  0
 13 29  4  0
 14 17  4  0
 14 28  4  0
 15 25  2  0
 16 27  4  0
 17 18  4  0
 20 27  1  0
 24 27  4  0
 26 28  4  0
M  END
$$$$

 Created by Python create_sdf_string function

 29 33  0  0  0  0  0  0  0  0999 V2000
    8.8270   -7.0288   18.4251 C   0  0  0  0  0  0  0  0  0  0  0  0
    9.1576   -4.6236   15.8860 O   0  0  0  0  0  0  0  0  0  0  0  0
    9.1509   -5.9108   17.7177 C   0  0  0  0  0  0  0  0  0  0  0  0
    3.6373   -9.5349   16.0582 N   0  0  0  0  0  0  0  0  0  0  0  0
    9.9275   -4.8001   18.0438 N   0  0  0  0  0  0  0  0  0  0  0  0
    8.5908   -5.7425   16.4412 C   0  0  0  0  0  0  0  0  0  0  0  0
   10.5993   -4.8981   21.6068 C   0  0  0  0  0  0  0  0  0  0  0  0
   10.4258   -3.0106   23.0998 C   0  0  0  0  0  0  0  0  0  0  0  0
   10.2148   -3.4364   25.4200 C   0  0  0  0  0  0  0  0  0  0  0  0
    9.7853   -1.1840   24.4927 C   0  0  0  0  0  0  0  0  0  0  0  0
    5.0276   -8.5227   17.5352 C   0  0  0  0  0  0  0  0  0  0  0  0
    9.8187   -2.0895   25.5800 C   0  0  0  0  0  0  0  0  0  0  0  0
    5.6473   -8.7216   15.3158 C   0  0  0  0  0  0  0  0  0  0  0  0
   10.7581   -3.1233   19.4720 N   0  0  0  0  0  0  0  0  0  0  0  0
    9.9571   -4.0573   16.8866 C   0  0  0  0  0  0  0  0  0  0  0  0
    7.6213   -6.5618   16.0087 C   0  0  0  0  0  0  0  0  0  0  0  0
   10.8583   -2.6527   20.7222 C   0  0  0  0  0  0  0  0  0  0  0  0
   10.6412   -3.5089   21.7936 C   0  0  0  0  0  0  0  0  0  0  0  0
   10.4972   -3.8968   24.1589 C   0  0  0  0  0  0  0  0  0  0  0  0
    5.9260   -8.2736   16.5517 C   0  0  0  0  0  0  0  0  0  0  0  0
    3.8816   -9.1166   17.2493 C   0  0  0  0  0  0  0  0  0  0  0  0
   10.1297   -1.6575   23.2324 C   0  0  0  0  0  0  0  0  0  0  0  0
    9.4684   -1.6929   26.7263 F   0  0  0  0  0  0  0  0  0  0  0  0
    7.7963   -7.7906   17.9837 C   0  0  0  0  0  0  0  0  0  0  0  0
   10.5884   -3.0725   16.7902 O   0  0  0  0  0  0  0  0  0  0  0  0
   10.4323   -5.3494   20.3516 C   0  0  0  0  0  0  0  0  0  0  0  0
    7.1156   -7.5454   16.8218 C   0  0  0  0  0  0  0  0  0  0  0  0
   10.3885   -4.4388   19.2773 C   0  0  0  0  0  0  0  0  0  0  0  0
    4.5160   -9.3822   15.0841 C   0  0  0  0  0  0  0  0  0  0  0  0
  1  3  4  0
  1 24  4  0
  2  6  4  0
  2 15  4  0
  3  5  4  0
  3  6  4  0
  4 21  4  0
  4 29  4  0
  5 15  4  0
  5 28  1  0
  6 16  4  0
  7 18  4  0
  7 26  4  0
  8 18  1  0
  8 19  4  0
  8 22  4  0
  9 12  4  0
  9 19  4  0
 10 12  4  0
 10 22  4  0
 11 20  4  0
 11 21  4  0
 12 23  1  0
 13 20  4  0
 13 29  4  0
 14 17  4  0
 14 28  4  0
 15 25  2  0
 16 27  4  0
 17 18  4  0
 20 27  1  0
 24 27  4  0
 26 28  4  0
M  END
$$$$

 Created by Python create_sdf_string function

 29 33  0  0  0  0  0  0  0  0999 V2000
    8.8270   -7.0288   18.4251 C   0  0  0  0  0  0  0  0  0  0  0  0
    9.1576   -4.6236   15.8860 O   0  0  0  0  0  0  0  0  0  0  0  0
    9.1509   -5.9108   17.7177 C   0  0  0  0  0  0  0  0  0  0  0  0
    3.6373   -9.5349   16.0582 N   0  0  0  0  0  0  0  0  0  0  0  0
    9.9275   -4.8001   18.0438 N   0  0  0  0  0  0  0  0  0  0  0  0
    8.5908   -5.7425   16.4412 C   0  0  0  0  0  0  0  0  0  0  0  0
   10.5993   -4.8981   21.6068 C   0  0  0  0  0  0  0  0  0  0  0  0
   10.4258   -3.0106   23.0998 C   0  0  0  0  0  0  0  0  0  0  0  0
   10.2148   -3.4364   25.4200 C   0  0  0  0  0  0  0  0  0  0  0  0
    9.7853   -1.1840   24.4927 C   0  0  0  0  0  0  0  0  0  0  0  0
    5.0276   -8.5227   17.5352 C   0  0  0  0  0  0  0  0  0  0  0  0
    9.8187   -2.0895   25.5800 C   0  0  0  0  0  0  0  0  0  0  0  0
    5.6473   -8.7216   15.3158 C   0  0  0  0  0  0  0  0  0  0  0  0
   10.7581   -3.1233   19.4720 N   0  0  0  0  0  0  0  0  0  0  0  0
    9.9571   -4.0573   16.8866 C   0  0  0  0  0  0  0  0  0  0  0  0
    7.6213   -6.5618   16.0087 C   0  0  0  0  0  0  0  0  0  0  0  0
   10.8583   -2.6527   20.7222 C   0  0  0  0  0  0  0  0  0  0  0  0
   10.6412   -3.5089   21.7936 C   0  0  0  0  0  0  0  0  0  0  0  0
   10.4972   -3.8968   24.1589 C   0  0  0  0  0  0  0  0  0  0  0  0
    5.9260   -8.2736   16.5517 C   0  0  0  0  0  0  0  0  0  0  0  0
    3.8816   -9.1166   17.2493 C   0  0  0  0  0  0  0  0  0  0  0  0
   10.1297   -1.6575   23.2324 C   0  0  0  0  0  0  0  0  0  0  0  0
    9.4684   -1.6929   26.7263 F   0  0  0  0  0  0  0  0  0  0  0  0
    7.7963   -7.7906   17.9837 C   0  0  0  0  0  0  0  0  0  0  0  0
   10.5884   -3.0725   16.7902 O   0  0  0  0  0  0  0  0  0  0  0  0
   10.4323   -5.3494   20.3516 C   0  0  0  0  0  0  0  0  0  0  0  0
    7.1156   -7.5454   16.8218 C   0  0  0  0  0  0  0  0  0  0  0  0
   10.3885   -4.4388   19.2773 C   0  0  0  0  0  0  0  0  0  0  0  0
    4.5160   -9.3822   15.0841 C   0  0  0  0  0  0  0  0  0  0  0  0
  1  3  4  0
  1 24  4  0
  2  6  4  0
  2 15  4  0
  3  5  4  0
  3  6  4  0
  4 21  4  0
  4 29  4  0
  5 15  4  0
  5 28  1  0
  6 16  4  0
  7 18  4  0
  7 26  4  0
  8 18  1  0
  8 19  4  0
  8 22  4  0
  9 12  4  0
  9 19  4  0
 10 12  4  0
 10 22  4  0
 11 20  4  0
 11 21  4  0
 12 23  1  0
 13 20  4  0
 13 29  4  0
 14 17  4  0
 14 28  4  0
 15 25  2  0
 16 27  4  0
 17 18  4  0
 20 27  1  0
 24 27  4  0
 26 28  4  0
M  END
$$$$

 Created by Python create_sdf_string function

 29 33  0  0  0  0  0  0  0  0999 V2000
    8.8270   -7.0288   18.4251 C   0  0  0  0  0  0  0  0  0  0  0  0
    9.1576   -4.6236   15.8860 O   0  0  0  0  0  0  0  0  0  0  0  0
    9.1509   -5.9108   17.7177 C   0  0  0  0  0  0  0  0  0  0  0  0
    3.6373   -9.5349   16.0582 N   0  0  0  0  0  0  0  0  0  0  0  0
    9.9275   -4.8001   18.0438 N   0  0  0  0  0  0  0  0  0  0  0  0
    8.5908   -5.7425   16.4412 C   0  0  0  0  0  0  0  0  0  0  0  0
   10.5993   -4.8981   21.6068 C   0  0  0  0  0  0  0  0  0  0  0  0
   10.4258   -3.0106   23.0998 C   0  0  0  0  0  0  0  0  0  0  0  0
   10.2148   -3.4364   25.4200 C   0  0  0  0  0  0  0  0  0  0  0  0
    9.7853   -1.1840   24.4927 C   0  0  0  0  0  0  0  0  0  0  0  0
    5.0276   -8.5227   17.5352 C   0  0  0  0  0  0  0  0  0  0  0  0
    9.8187   -2.0895   25.5800 C   0  0  0  0  0  0  0  0  0  0  0  0
    5.6473   -8.7216   15.3158 C   0  0  0  0  0  0  0  0  0  0  0  0
   10.7581   -3.1233   19.4720 N   0  0  0  0  0  0  0  0  0  0  0  0
    9.9571   -4.0573   16.8866 C   0  0  0  0  0  0  0  0  0  0  0  0
    7.6213   -6.5618   16.0087 C   0  0  0  0  0  0  0  0  0  0  0  0
   10.8583   -2.6527   20.7222 C   0  0  0  0  0  0  0  0  0  0  0  0
   10.6412   -3.5089   21.7936 C   0  0  0  0  0  0  0  0  0  0  0  0
   10.4972   -3.8968   24.1589 C   0  0  0  0  0  0  0  0  0  0  0  0
    5.9260   -8.2736   16.5517 C   0  0  0  0  0  0  0  0  0  0  0  0
    3.8816   -9.1166   17.2493 C   0  0  0  0  0  0  0  0  0  0  0  0
   10.1297   -1.6575   23.2324 C   0  0  0  0  0  0  0  0  0  0  0  0
    9.4684   -1.6929   26.7263 F   0  0  0  0  0  0  0  0  0  0  0  0
    7.7963   -7.7906   17.9837 C   0  0  0  0  0  0  0  0  0  0  0  0
   10.5884   -3.0725   16.7902 O   0  0  0  0  0  0  0  0  0  0  0  0
   10.4323   -5.3494   20.3516 C   0  0  0  0  0  0  0  0  0  0  0  0
    7.1156   -7.5454   16.8218 C   0  0  0  0  0  0  0  0  0  0  0  0
   10.3885   -4.4388   19.2773 C   0  0  0  0  0  0  0  0  0  0  0  0
    4.5160   -9.3822   15.0841 C   0  0  0  0  0  0  0  0  0  0  0  0
  1  3  4  0
  1 24  4  0
  2  6  4  0
  2 15  4  0
  3  5  4  0
  3  6  4  0
  4 21  4  0
  4 29  4  0
  5 15  4  0
  5 28  1  0
  6 16  4  0
  7 18  4  0
  7 26  4  0
  8 18  1  0
  8 19  4  0
  8 22  4  0
  9 12  4  0
  9 19  4  0
 10 12  4  0
 10 22  4  0
 11 20  4  0
 11 21  4  0
 12 23  1  0
 13 20  4  0
 13 29  4  0
 14 17  4  0
 14 28  4  0
 15 25  2  0
 16 27  4  0
 17 18  4  0
 20 27  1  0
 24 27  4  0
 26 28  4  0
M  END
$$$$

 Created by Python create_sdf_string function

 29 33  0  0  0  0  0  0  0  0999 V2000
    8.8270   -7.0288   18.4251 C   0  0  0  0  0  0  0  0  0  0  0  0
    9.1576   -4.6236   15.8860 O   0  0  0  0  0  0  0  0  0  0  0  0
    9.1509   -5.9108   17.7177 C   0  0  0  0  0  0  0  0  0  0  0  0
    3.6373   -9.5349   16.0582 N   0  0  0  0  0  0  0  0  0  0  0  0
    9.9275   -4.8001   18.0438 N   0  0  0  0  0  0  0  0  0  0  0  0
    8.5908   -5.7425   16.4412 C   0  0  0  0  0  0  0  0  0  0  0  0
   10.5993   -4.8981   21.6068 C   0  0  0  0  0  0  0  0  0  0  0  0
   10.4258   -3.0106   23.0998 C   0  0  0  0  0  0  0  0  0  0  0  0
   10.2148   -3.4364   25.4200 C   0  0  0  0  0  0  0  0  0  0  0  0
    9.7853   -1.1840   24.4927 C   0  0  0  0  0  0  0  0  0  0  0  0
    5.0276   -8.5227   17.5352 C   0  0  0  0  0  0  0  0  0  0  0  0
    9.8187   -2.0895   25.5800 C   0  0  0  0  0  0  0  0  0  0  0  0
    5.6473   -8.7216   15.3158 C   0  0  0  0  0  0  0  0  0  0  0  0
   10.7581   -3.1233   19.4720 N   0  0  0  0  0  0  0  0  0  0  0  0
    9.9571   -4.0573   16.8866 C   0  0  0  0  0  0  0  0  0  0  0  0
    7.6213   -6.5618   16.0087 C   0  0  0  0  0  0  0  0  0  0  0  0
   10.8583   -2.6527   20.7222 C   0  0  0  0  0  0  0  0  0  0  0  0
   10.6412   -3.5089   21.7936 C   0  0  0  0  0  0  0  0  0  0  0  0
   10.4972   -3.8968   24.1589 C   0  0  0  0  0  0  0  0  0  0  0  0
    5.9260   -8.2736   16.5517 C   0  0  0  0  0  0  0  0  0  0  0  0
    3.8816   -9.1166   17.2493 C   0  0  0  0  0  0  0  0  0  0  0  0
   10.1297   -1.6575   23.2324 C   0  0  0  0  0  0  0  0  0  0  0  0
    9.4684   -1.6929   26.7263 F   0  0  0  0  0  0  0  0  0  0  0  0
    7.7963   -7.7906   17.9837 C   0  0  0  0  0  0  0  0  0  0  0  0
   10.5884   -3.0725   16.7902 O   0  0  0  0  0  0  0  0  0  0  0  0
   10.4323   -5.3494   20.3516 C   0  0  0  0  0  0  0  0  0  0  0  0
    7.1156   -7.5454   16.8218 C   0  0  0  0  0  0  0  0  0  0  0  0
   10.3885   -4.4388   19.2773 C   0  0  0  0  0  0  0  0  0  0  0  0
    4.5160   -9.3822   15.0841 C   0  0  0  0  0  0  0  0  0  0  0  0
  1  3  4  0
  1 24  4  0
  2  6  4  0
  2 15  4  0
  3  5  4  0
  3  6  4  0
  4 21  4  0
  4 29  4  0
  5 15  4  0
  5 28  1  0
  6 16  4  0
  7 18  4  0
  7 26  4  0
  8 18  1  0
  8 19  4  0
  8 22  4  0
  9 12  4  0
  9 19  4  0
 10 12  4  0
 10 22  4  0
 11 20  4  0
 11 21  4  0
 12 23  1  0
 13 20  4  0
 13 29  4  0
 14 17  4  0
 14 28  4  0
 15 25  2  0
 16 27  4  0
 17 18  4  0
 20 27  1  0
 24 27  4  0
 26 28  4  0
M  END
$$$$

 Created by Python create_sdf_string function

 29 33  0  0  0  0  0  0  0  0999 V2000
    8.8270   -7.0288   18.4251 C   0  0  0  0  0  0  0  0  0  0  0  0
    9.1576   -4.6236   15.8860 O   0  0  0  0  0  0  0  0  0  0  0  0
    9.1509   -5.9108   17.7177 C   0  0  0  0  0  0  0  0  0  0  0  0
    3.6373   -9.5349   16.0582 N   0  0  0  0  0  0  0  0  0  0  0  0
    9.9275   -4.8001   18.0438 N   0  0  0  0  0  0  0  0  0  0  0  0
    8.5908   -5.7425   16.4412 C   0  0  0  0  0  0  0  0  0  0  0  0
   10.5993   -4.8981   21.6068 C   0  0  0  0  0  0  0  0  0  0  0  0
   10.4258   -3.0106   23.0998 C   0  0  0  0  0  0  0  0  0  0  0  0
   10.2148   -3.4364   25.4200 C   0  0  0  0  0  0  0  0  0  0  0  0
    9.7853   -1.1840   24.4927 C   0  0  0  0  0  0  0  0  0  0  0  0
    5.0276   -8.5227   17.5352 C   0  0  0  0  0  0  0  0  0  0  0  0
    9.8187   -2.0895   25.5800 C   0  0  0  0  0  0  0  0  0  0  0  0
    5.6473   -8.7216   15.3158 C   0  0  0  0  0  0  0  0  0  0  0  0
   10.7581   -3.1233   19.4720 N   0  0  0  0  0  0  0  0  0  0  0  0
    9.9571   -4.0573   16.8866 C   0  0  0  0  0  0  0  0  0  0  0  0
    7.6213   -6.5618   16.0087 C   0  0  0  0  0  0  0  0  0  0  0  0
   10.8583   -2.6527   20.7222 C   0  0  0  0  0  0  0  0  0  0  0  0
   10.6412   -3.5089   21.7936 C   0  0  0  0  0  0  0  0  0  0  0  0
   10.4972   -3.8968   24.1589 C   0  0  0  0  0  0  0  0  0  0  0  0
    5.9260   -8.2736   16.5517 C   0  0  0  0  0  0  0  0  0  0  0  0
    3.8816   -9.1166   17.2493 C   0  0  0  0  0  0  0  0  0  0  0  0
   10.1297   -1.6575   23.2324 C   0  0  0  0  0  0  0  0  0  0  0  0
    9.4684   -1.6929   26.7263 F   0  0  0  0  0  0  0  0  0  0  0  0
    7.7963   -7.7906   17.9837 C   0  0  0  0  0  0  0  0  0  0  0  0
   10.5884   -3.0725   16.7902 O   0  0  0  0  0  0  0  0  0  0  0  0
   10.4323   -5.3494   20.3516 C   0  0  0  0  0  0  0  0  0  0  0  0
    7.1156   -7.5454   16.8218 C   0  0  0  0  0  0  0  0  0  0  0  0
   10.3885   -4.4388   19.2773 C   0  0  0  0  0  0  0  0  0  0  0  0
    4.5160   -9.3822   15.0841 C   0  0  0  0  0  0  0  0  0  0  0  0
  1  3  4  0
  1 24  4  0
  2  6  4  0
  2 15  4  0
  3  5  4  0
  3  6  4  0
  4 21  4  0
  4 29  4  0
  5 15  4  0
  5 28  1  0
  6 16  4  0
  7 18  4  0
  7 26  4  0
  8 18  1  0
  8 19  4  0
  8 22  4  0
  9 12  4  0
  9 19  4  0
 10 12  4  0
 10 22  4  0
 11 20  4  0
 11 21  4  0
 12 23  1  0
 13 20  4  0
 13 29  4  0
 14 17  4  0
 14 28  4  0
 15 25  2  0
 16 27  4  0
 17 18  4  0
 20 27  1  0
 24 27  4  0
 26 28  4  0
M  END
$$$$

 Created by Python create_sdf_string function

 29 33  0  0  0  0  0  0  0  0999 V2000
    8.8270   -7.0288   18.4251 C   0  0  0  0  0  0  0  0  0  0  0  0
    9.1576   -4.6236   15.8860 O   0  0  0  0  0  0  0  0  0  0  0  0
    9.1509   -5.9108   17.7177 C   0  0  0  0  0  0  0  0  0  0  0  0
    3.6373   -9.5349   16.0582 N   0  0  0  0  0  0  0  0  0  0  0  0
    9.9275   -4.8001   18.0438 N   0  0  0  0  0  0  0  0  0  0  0  0
    8.5908   -5.7425   16.4412 C   0  0  0  0  0  0  0  0  0  0  0  0
   10.5993   -4.8981   21.6068 C   0  0  0  0  0  0  0  0  0  0  0  0
   10.4258   -3.0106   23.0998 C   0  0  0  0  0  0  0  0  0  0  0  0
   10.2148   -3.4364   25.4200 C   0  0  0  0  0  0  0  0  0  0  0  0
    9.7853   -1.1840   24.4927 C   0  0  0  0  0  0  0  0  0  0  0  0
    5.0276   -8.5227   17.5352 C   0  0  0  0  0  0  0  0  0  0  0  0
    9.8187   -2.0895   25.5800 C   0  0  0  0  0  0  0  0  0  0  0  0
    5.6473   -8.7216   15.3158 C   0  0  0  0  0  0  0  0  0  0  0  0
   10.7581   -3.1233   19.4720 N   0  0  0  0  0  0  0  0  0  0  0  0
    9.9571   -4.0573   16.8866 C   0  0  0  0  0  0  0  0  0  0  0  0
    7.6213   -6.5618   16.0087 C   0  0  0  0  0  0  0  0  0  0  0  0
   10.8583   -2.6527   20.7222 C   0  0  0  0  0  0  0  0  0  0  0  0
   10.6412   -3.5089   21.7936 C   0  0  0  0  0  0  0  0  0  0  0  0
   10.4972   -3.8968   24.1589 C   0  0  0  0  0  0  0  0  0  0  0  0
    5.9260   -8.2736   16.5517 C   0  0  0  0  0  0  0  0  0  0  0  0
    3.8816   -9.1166   17.2493 C   0  0  0  0  0  0  0  0  0  0  0  0
   10.1297   -1.6575   23.2324 C   0  0  0  0  0  0  0  0  0  0  0  0
    9.4684   -1.6929   26.7263 F   0  0  0  0  0  0  0  0  0  0  0  0
    7.7963   -7.7906   17.9837 C   0  0  0  0  0  0  0  0  0  0  0  0
   10.5884   -3.0725   16.7902 O   0  0  0  0  0  0  0  0  0  0  0  0
   10.4323   -5.3494   20.3516 C   0  0  0  0  0  0  0  0  0  0  0  0
    7.1156   -7.5454   16.8218 C   0  0  0  0  0  0  0  0  0  0  0  0
   10.3885   -4.4388   19.2773 C   0  0  0  0  0  0  0  0  0  0  0  0
    4.5160   -9.3822   15.0841 C   0  0  0  0  0  0  0  0  0  0  0  0
  1  3  4  0
  1 24  4  0
  2  6  4  0
  2 15  4  0
  3  5  4  0
  3  6  4  0
  4 21  4  0
  4 29  4  0
  5 15  4  0
  5 28  1  0
  6 16  4  0
  7 18  4  0
  7 26  4  0
  8 18  1  0
  8 19  4  0
  8 22  4  0
  9 12  4  0
  9 19  4  0
 10 12  4  0
 10 22  4  0
 11 20  4  0
 11 21  4  0
 12 23  1  0
 13 20  4  0
 13 29  4  0
 14 17  4  0
 14 28  4  0
 15 25  2  0
 16 27  4  0
 17 18  4  0
 20 27  1  0
 24 27  4  0
 26 28  4  0
M  END
$$$$

 Created by Python create_sdf_string function

 29 33  0  0  0  0  0  0  0  0999 V2000
    8.8270   -7.0288   18.4251 C   0  0  0  0  0  0  0  0  0  0  0  0
    9.1576   -4.6236   15.8860 O   0  0  0  0  0  0  0  0  0  0  0  0
    9.1509   -5.9108   17.7177 C   0  0  0  0  0  0  0  0  0  0  0  0
    3.6373   -9.5349   16.0582 N   0  0  0  0  0  0  0  0  0  0  0  0
    9.9275   -4.8001   18.0438 N   0  0  0  0  0  0  0  0  0  0  0  0
    8.5908   -5.7425   16.4412 C   0  0  0  0  0  0  0  0  0  0  0  0
   10.5993   -4.8981   21.6068 C   0  0  0  0  0  0  0  0  0  0  0  0
   10.4258   -3.0106   23.0998 C   0  0  0  0  0  0  0  0  0  0  0  0
   10.2148   -3.4364   25.4200 C   0  0  0  0  0  0  0  0  0  0  0  0
    9.7853   -1.1840   24.4927 C   0  0  0  0  0  0  0  0  0  0  0  0
    5.0276   -8.5227   17.5352 C   0  0  0  0  0  0  0  0  0  0  0  0
    9.8187   -2.0895   25.5800 C   0  0  0  0  0  0  0  0  0  0  0  0
    5.6473   -8.7216   15.3158 C   0  0  0  0  0  0  0  0  0  0  0  0
   10.7581   -3.1233   19.4720 N   0  0  0  0  0  0  0  0  0  0  0  0
    9.9571   -4.0573   16.8866 C   0  0  0  0  0  0  0  0  0  0  0  0
    7.6213   -6.5618   16.0087 C   0  0  0  0  0  0  0  0  0  0  0  0
   10.8583   -2.6527   20.7222 C   0  0  0  0  0  0  0  0  0  0  0  0
   10.6412   -3.5089   21.7936 C   0  0  0  0  0  0  0  0  0  0  0  0
   10.4972   -3.8968   24.1589 C   0  0  0  0  0  0  0  0  0  0  0  0
    5.9260   -8.2736   16.5517 C   0  0  0  0  0  0  0  0  0  0  0  0
    3.8816   -9.1166   17.2493 C   0  0  0  0  0  0  0  0  0  0  0  0
   10.1297   -1.6575   23.2324 C   0  0  0  0  0  0  0  0  0  0  0  0
    9.4684   -1.6929   26.7263 F   0  0  0  0  0  0  0  0  0  0  0  0
    7.7963   -7.7906   17.9837 C   0  0  0  0  0  0  0  0  0  0  0  0
   10.5884   -3.0725   16.7902 O   0  0  0  0  0  0  0  0  0  0  0  0
   10.4323   -5.3494   20.3516 C   0  0  0  0  0  0  0  0  0  0  0  0
    7.1156   -7.5454   16.8218 C   0  0  0  0  0  0  0  0  0  0  0  0
   10.3885   -4.4388   19.2773 C   0  0  0  0  0  0  0  0  0  0  0  0
    4.5160   -9.3822   15.0841 C   0  0  0  0  0  0  0  0  0  0  0  0
  1  3  4  0
  1 24  4  0
  2  6  4  0
  2 15  4  0
  3  5  4  0
  3  6  4  0
  4 21  4  0
  4 29  4  0
  5 15  4  0
  5 28  1  0
  6 16  4  0
  7 18  4  0
  7 26  4  0
  8 18  1  0
  8 19  4  0
  8 22  4  0
  9 12  4  0
  9 19  4  0
 10 12  4  0
 10 22  4  0
 11 20  4  0
 11 21  4  0
 12 23  1  0
 13 20  4  0
 13 29  4  0
 14 17  4  0
 14 28  4  0
 15 25  2  0
 16 27  4  0
 17 18  4  0
 20 27  1  0
 24 27  4  0
 26 28  4  0
M  END
$$$$

 Created by Python create_sdf_string function

 29 33  0  0  0  0  0  0  0  0999 V2000
    8.8270   -7.0288   18.4251 C   0  0  0  0  0  0  0  0  0  0  0  0
    9.1576   -4.6236   15.8860 O   0  0  0  0  0  0  0  0  0  0  0  0
    9.1509   -5.9108   17.7177 C   0  0  0  0  0  0  0  0  0  0  0  0
    3.6373   -9.5349   16.0582 N   0  0  0  0  0  0  0  0  0  0  0  0
    9.9275   -4.8001   18.0438 N   0  0  0  0  0  0  0  0  0  0  0  0
    8.5908   -5.7425   16.4412 C   0  0  0  0  0  0  0  0  0  0  0  0
   10.5993   -4.8981   21.6068 C   0  0  0  0  0  0  0  0  0  0  0  0
   10.4258   -3.0106   23.0998 C   0  0  0  0  0  0  0  0  0  0  0  0
   10.2148   -3.4364   25.4200 C   0  0  0  0  0  0  0  0  0  0  0  0
    9.7853   -1.1840   24.4927 C   0  0  0  0  0  0  0  0  0  0  0  0
    5.0276   -8.5227   17.5352 C   0  0  0  0  0  0  0  0  0  0  0  0
    9.8187   -2.0895   25.5800 C   0  0  0  0  0  0  0  0  0  0  0  0
    5.6473   -8.7216   15.3158 C   0  0  0  0  0  0  0  0  0  0  0  0
   10.7581   -3.1233   19.4720 N   0  0  0  0  0  0  0  0  0  0  0  0
    9.9571   -4.0573   16.8866 C   0  0  0  0  0  0  0  0  0  0  0  0
    7.6213   -6.5618   16.0087 C   0  0  0  0  0  0  0  0  0  0  0  0
   10.8583   -2.6527   20.7222 C   0  0  0  0  0  0  0  0  0  0  0  0
   10.6412   -3.5089   21.7936 C   0  0  0  0  0  0  0  0  0  0  0  0
   10.4972   -3.8968   24.1589 C   0  0  0  0  0  0  0  0  0  0  0  0
    5.9260   -8.2736   16.5517 C   0  0  0  0  0  0  0  0  0  0  0  0
    3.8816   -9.1166   17.2493 C   0  0  0  0  0  0  0  0  0  0  0  0
   10.1297   -1.6575   23.2324 C   0  0  0  0  0  0  0  0  0  0  0  0
    9.4684   -1.6929   26.7263 F   0  0  0  0  0  0  0  0  0  0  0  0
    7.7963   -7.7906   17.9837 C   0  0  0  0  0  0  0  0  0  0  0  0
   10.5884   -3.0725   16.7902 O   0  0  0  0  0  0  0  0  0  0  0  0
   10.4323   -5.3494   20.3516 C   0  0  0  0  0  0  0  0  0  0  0  0
    7.1156   -7.5454   16.8218 C   0  0  0  0  0  0  0  0  0  0  0  0
   10.3885   -4.4388   19.2773 C   0  0  0  0  0  0  0  0  0  0  0  0
    4.5160   -9.3822   15.0841 C   0  0  0  0  0  0  0  0  0  0  0  0
  1  3  4  0
  1 24  4  0
  2  6  4  0
  2 15  4  0
  3  5  4  0
  3  6  4  0
  4 21  4  0
  4 29  4  0
  5 15  4  0
  5 28  1  0
  6 16  4  0
  7 18  4  0
  7 26  4  0
  8 18  1  0
  8 19  4  0
  8 22  4  0
  9 12  4  0
  9 19  4  0
 10 12  4  0
 10 22  4  0
 11 20  4  0
 11 21  4  0
 12 23  1  0
 13 20  4  0
 13 29  4  0
 14 17  4  0
 14 28  4  0
 15 25  2  0
 16 27  4  0
 17 18  4  0
 20 27  1  0
 24 27  4  0
 26 28  4  0
M  END
$$$$

 Created by Python create_sdf_string function

 29 33  0  0  0  0  0  0  0  0999 V2000
    8.8270   -7.0288   18.4251 C   0  0  0  0  0  0  0  0  0  0  0  0
    9.1576   -4.6236   15.8860 O   0  0  0  0  0  0  0  0  0  0  0  0
    9.1509   -5.9108   17.7177 C   0  0  0  0  0  0  0  0  0  0  0  0
    3.6373   -9.5349   16.0582 N   0  0  0  0  0  0  0  0  0  0  0  0
    9.9275   -4.8001   18.0438 N   0  0  0  0  0  0  0  0  0  0  0  0
    8.5908   -5.7425   16.4412 C   0  0  0  0  0  0  0  0  0  0  0  0
   10.5993   -4.8981   21.6068 C   0  0  0  0  0  0  0  0  0  0  0  0
   10.4258   -3.0106   23.0998 C   0  0  0  0  0  0  0  0  0  0  0  0
   10.2148   -3.4364   25.4200 C   0  0  0  0  0  0  0  0  0  0  0  0
    9.7853   -1.1840   24.4927 C   0  0  0  0  0  0  0  0  0  0  0  0
    5.0276   -8.5227   17.5352 C   0  0  0  0  0  0  0  0  0  0  0  0
    9.8187   -2.0895   25.5800 C   0  0  0  0  0  0  0  0  0  0  0  0
    5.6473   -8.7216   15.3158 C   0  0  0  0  0  0  0  0  0  0  0  0
   10.7581   -3.1233   19.4720 N   0  0  0  0  0  0  0  0  0  0  0  0
    9.9571   -4.0573   16.8866 C   0  0  0  0  0  0  0  0  0  0  0  0
    7.6213   -6.5618   16.0087 C   0  0  0  0  0  0  0  0  0  0  0  0
   10.8583   -2.6527   20.7222 C   0  0  0  0  0  0  0  0  0  0  0  0
   10.6412   -3.5089   21.7936 C   0  0  0  0  0  0  0  0  0  0  0  0
   10.4972   -3.8968   24.1589 C   0  0  0  0  0  0  0  0  0  0  0  0
    5.9260   -8.2736   16.5517 C   0  0  0  0  0  0  0  0  0  0  0  0
    3.8816   -9.1166   17.2493 C   0  0  0  0  0  0  0  0  0  0  0  0
   10.1297   -1.6575   23.2324 C   0  0  0  0  0  0  0  0  0  0  0  0
    9.4684   -1.6929   26.7263 F   0  0  0  0  0  0  0  0  0  0  0  0
    7.7963   -7.7906   17.9837 C   0  0  0  0  0  0  0  0  0  0  0  0
   10.5884   -3.0725   16.7902 O   0  0  0  0  0  0  0  0  0  0  0  0
   10.4323   -5.3494   20.3516 C   0  0  0  0  0  0  0  0  0  0  0  0
    7.1156   -7.5454   16.8218 C   0  0  0  0  0  0  0  0  0  0  0  0
   10.3885   -4.4388   19.2773 C   0  0  0  0  0  0  0  0  0  0  0  0
    4.5160   -9.3822   15.0841 C   0  0  0  0  0  0  0  0  0  0  0  0
  1  3  4  0
  1 24  4  0
  2  6  4  0
  2 15  4  0
  3  5  4  0
  3  6  4  0
  4 21  4  0
  4 29  4  0
  5 15  4  0
  5 28  1  0
  6 16  4  0
  7 18  4  0
  7 26  4  0
  8 18  1  0
  8 19  4  0
  8 22  4  0
  9 12  4  0
  9 19  4  0
 10 12  4  0
 10 22  4  0
 11 20  4  0
 11 21  4  0
 12 23  1  0
 13 20  4  0
 13 29  4  0
 14 17  4  0
 14 28  4  0
 15 25  2  0
 16 27  4  0
 17 18  4  0
 20 27  1  0
 24 27  4  0
 26 28  4  0
M  END
$$$$

 Created by Python create_sdf_string function

 29 33  0  0  0  0  0  0  0  0999 V2000
    8.8270   -7.0288   18.4251 C   0  0  0  0  0  0  0  0  0  0  0  0
    9.1576   -4.6236   15.8860 O   0  0  0  0  0  0  0  0  0  0  0  0
    9.1509   -5.9108   17.7177 C   0  0  0  0  0  0  0  0  0  0  0  0
    3.6373   -9.5349   16.0582 N   0  0  0  0  0  0  0  0  0  0  0  0
    9.9275   -4.8001   18.0438 N   0  0  0  0  0  0  0  0  0  0  0  0
    8.5908   -5.7425   16.4412 C   0  0  0  0  0  0  0  0  0  0  0  0
   10.5993   -4.8981   21.6068 C   0  0  0  0  0  0  0  0  0  0  0  0
   10.4258   -3.0106   23.0998 C   0  0  0  0  0  0  0  0  0  0  0  0
   10.2148   -3.4364   25.4200 C   0  0  0  0  0  0  0  0  0  0  0  0
    9.7853   -1.1840   24.4927 C   0  0  0  0  0  0  0  0  0  0  0  0
    5.0276   -8.5227   17.5352 C   0  0  0  0  0  0  0  0  0  0  0  0
    9.8187   -2.0895   25.5800 C   0  0  0  0  0  0  0  0  0  0  0  0
    5.6473   -8.7216   15.3158 C   0  0  0  0  0  0  0  0  0  0  0  0
   10.7581   -3.1233   19.4720 N   0  0  0  0  0  0  0  0  0  0  0  0
    9.9571   -4.0573   16.8866 C   0  0  0  0  0  0  0  0  0  0  0  0
    7.6213   -6.5618   16.0087 C   0  0  0  0  0  0  0  0  0  0  0  0
   10.8583   -2.6527   20.7222 C   0  0  0  0  0  0  0  0  0  0  0  0
   10.6412   -3.5089   21.7936 C   0  0  0  0  0  0  0  0  0  0  0  0
   10.4972   -3.8968   24.1589 C   0  0  0  0  0  0  0  0  0  0  0  0
    5.9260   -8.2736   16.5517 C   0  0  0  0  0  0  0  0  0  0  0  0
    3.8816   -9.1166   17.2493 C   0  0  0  0  0  0  0  0  0  0  0  0
   10.1297   -1.6575   23.2324 C   0  0  0  0  0  0  0  0  0  0  0  0
    9.4684   -1.6929   26.7263 F   0  0  0  0  0  0  0  0  0  0  0  0
    7.7963   -7.7906   17.9837 C   0  0  0  0  0  0  0  0  0  0  0  0
   10.5884   -3.0725   16.7902 O   0  0  0  0  0  0  0  0  0  0  0  0
   10.4323   -5.3494   20.3516 C   0  0  0  0  0  0  0  0  0  0  0  0
    7.1156   -7.5454   16.8218 C   0  0  0  0  0  0  0  0  0  0  0  0
   10.3885   -4.4388   19.2773 C   0  0  0  0  0  0  0  0  0  0  0  0
    4.5160   -9.3822   15.0841 C   0  0  0  0  0  0  0  0  0  0  0  0
  1  3  4  0
  1 24  4  0
  2  6  4  0
  2 15  4  0
  3  5  4  0
  3  6  4  0
  4 21  4  0
  4 29  4  0
  5 15  4  0
  5 28  1  0
  6 16  4  0
  7 18  4  0
  7 26  4  0
  8 18  1  0
  8 19  4  0
  8 22  4  0
  9 12  4  0
  9 19  4  0
 10 12  4  0
 10 22  4  0
 11 20  4  0
 11 21  4  0
 12 23  1  0
 13 20  4  0
 13 29  4  0
 14 17  4  0
 14 28  4  0
 15 25  2  0
 16 27  4  0
 17 18  4  0
 20 27  1  0
 24 27  4  0
 26 28  4  0
M  END
$$$$

 Created by Python create_sdf_string function

 29 33  0  0  0  0  0  0  0  0999 V2000
    8.8270   -7.0288   18.4251 C   0  0  0  0  0  0  0  0  0  0  0  0
    9.1576   -4.6236   15.8860 O   0  0  0  0  0  0  0  0  0  0  0  0
    9.1509   -5.9108   17.7177 C   0  0  0  0  0  0  0  0  0  0  0  0
    3.6373   -9.5349   16.0582 N   0  0  0  0  0  0  0  0  0  0  0  0
    9.9275   -4.8001   18.0438 N   0  0  0  0  0  0  0  0  0  0  0  0
    8.5908   -5.7425   16.4412 C   0  0  0  0  0  0  0  0  0  0  0  0
   10.5993   -4.8981   21.6068 C   0  0  0  0  0  0  0  0  0  0  0  0
   10.4258   -3.0106   23.0998 C   0  0  0  0  0  0  0  0  0  0  0  0
   10.2148   -3.4364   25.4200 C   0  0  0  0  0  0  0  0  0  0  0  0
    9.7853   -1.1840   24.4927 C   0  0  0  0  0  0  0  0  0  0  0  0
    5.0276   -8.5227   17.5352 C   0  0  0  0  0  0  0  0  0  0  0  0
    9.8187   -2.0895   25.5800 C   0  0  0  0  0  0  0  0  0  0  0  0
    5.6473   -8.7216   15.3158 C   0  0  0  0  0  0  0  0  0  0  0  0
   10.7581   -3.1233   19.4720 N   0  0  0  0  0  0  0  0  0  0  0  0
    9.9571   -4.0573   16.8866 C   0  0  0  0  0  0  0  0  0  0  0  0
    7.6213   -6.5618   16.0087 C   0  0  0  0  0  0  0  0  0  0  0  0
   10.8583   -2.6527   20.7222 C   0  0  0  0  0  0  0  0  0  0  0  0
   10.6412   -3.5089   21.7936 C   0  0  0  0  0  0  0  0  0  0  0  0
   10.4972   -3.8968   24.1589 C   0  0  0  0  0  0  0  0  0  0  0  0
    5.9260   -8.2736   16.5517 C   0  0  0  0  0  0  0  0  0  0  0  0
    3.8816   -9.1166   17.2493 C   0  0  0  0  0  0  0  0  0  0  0  0
   10.1297   -1.6575   23.2324 C   0  0  0  0  0  0  0  0  0  0  0  0
    9.4684   -1.6929   26.7263 F   0  0  0  0  0  0  0  0  0  0  0  0
    7.7963   -7.7906   17.9837 C   0  0  0  0  0  0  0  0  0  0  0  0
   10.5884   -3.0725   16.7902 O   0  0  0  0  0  0  0  0  0  0  0  0
   10.4323   -5.3494   20.3516 C   0  0  0  0  0  0  0  0  0  0  0  0
    7.1156   -7.5454   16.8218 C   0  0  0  0  0  0  0  0  0  0  0  0
   10.3885   -4.4388   19.2773 C   0  0  0  0  0  0  0  0  0  0  0  0
    4.5160   -9.3822   15.0841 C   0  0  0  0  0  0  0  0  0  0  0  0
  1  3  4  0
  1 24  4  0
  2  6  4  0
  2 15  4  0
  3  5  4  0
  3  6  4  0
  4 21  4  0
  4 29  4  0
  5 15  4  0
  5 28  1  0
  6 16  4  0
  7 18  4  0
  7 26  4  0
  8 18  1  0
  8 19  4  0
  8 22  4  0
  9 12  4  0
  9 19  4  0
 10 12  4  0
 10 22  4  0
 11 20  4  0
 11 21  4  0
 12 23  1  0
 13 20  4  0
 13 29  4  0
 14 17  4  0
 14 28  4  0
 15 25  2  0
 16 27  4  0
 17 18  4  0
 20 27  1  0
 24 27  4  0
 26 28  4  0
M  END
$$$$

 Created by Python create_sdf_string function

 29 33  0  0  0  0  0  0  0  0999 V2000
    8.8270   -7.0288   18.4251 C   0  0  0  0  0  0  0  0  0  0  0  0
    9.1576   -4.6236   15.8860 O   0  0  0  0  0  0  0  0  0  0  0  0
    9.1509   -5.9108   17.7177 C   0  0  0  0  0  0  0  0  0  0  0  0
    3.6373   -9.5349   16.0582 N   0  0  0  0  0  0  0  0  0  0  0  0
    9.9275   -4.8001   18.0438 N   0  0  0  0  0  0  0  0  0  0  0  0
    8.5908   -5.7425   16.4412 C   0  0  0  0  0  0  0  0  0  0  0  0
   10.5993   -4.8981   21.6068 C   0  0  0  0  0  0  0  0  0  0  0  0
   10.4258   -3.0106   23.0998 C   0  0  0  0  0  0  0  0  0  0  0  0
   10.2148   -3.4364   25.4200 C   0  0  0  0  0  0  0  0  0  0  0  0
    9.7853   -1.1840   24.4927 C   0  0  0  0  0  0  0  0  0  0  0  0
    5.0276   -8.5227   17.5352 C   0  0  0  0  0  0  0  0  0  0  0  0
    9.8187   -2.0895   25.5800 C   0  0  0  0  0  0  0  0  0  0  0  0
    5.6473   -8.7216   15.3158 C   0  0  0  0  0  0  0  0  0  0  0  0
   10.7581   -3.1233   19.4720 N   0  0  0  0  0  0  0  0  0  0  0  0
    9.9571   -4.0573   16.8866 C   0  0  0  0  0  0  0  0  0  0  0  0
    7.6213   -6.5618   16.0087 C   0  0  0  0  0  0  0  0  0  0  0  0
   10.8583   -2.6527   20.7222 C   0  0  0  0  0  0  0  0  0  0  0  0
   10.6412   -3.5089   21.7936 C   0  0  0  0  0  0  0  0  0  0  0  0
   10.4972   -3.8968   24.1589 C   0  0  0  0  0  0  0  0  0  0  0  0
    5.9260   -8.2736   16.5517 C   0  0  0  0  0  0  0  0  0  0  0  0
    3.8816   -9.1166   17.2493 C   0  0  0  0  0  0  0  0  0  0  0  0
   10.1297   -1.6575   23.2324 C   0  0  0  0  0  0  0  0  0  0  0  0
    9.4684   -1.6929   26.7263 F   0  0  0  0  0  0  0  0  0  0  0  0
    7.7963   -7.7906   17.9837 C   0  0  0  0  0  0  0  0  0  0  0  0
   10.5884   -3.0725   16.7902 O   0  0  0  0  0  0  0  0  0  0  0  0
   10.4323   -5.3494   20.3516 C   0  0  0  0  0  0  0  0  0  0  0  0
    7.1156   -7.5454   16.8218 C   0  0  0  0  0  0  0  0  0  0  0  0
   10.3885   -4.4388   19.2773 C   0  0  0  0  0  0  0  0  0  0  0  0
    4.5160   -9.3822   15.0841 C   0  0  0  0  0  0  0  0  0  0  0  0
  1  3  4  0
  1 24  4  0
  2  6  4  0
  2 15  4  0
  3  5  4  0
  3  6  4  0
  4 21  4  0
  4 29  4  0
  5 15  4  0
  5 28  1  0
  6 16  4  0
  7 18  4  0
  7 26  4  0
  8 18  1  0
  8 19  4  0
  8 22  4  0
  9 12  4  0
  9 19  4  0
 10 12  4  0
 10 22  4  0
 11 20  4  0
 11 21  4  0
 12 23  1  0
 13 20  4  0
 13 29  4  0
 14 17  4  0
 14 28  4  0
 15 25  2  0
 16 27  4  0
 17 18  4  0
 20 27  1  0
 24 27  4  0
 26 28  4  0
M  END
$$$$

 Created by Python create_sdf_string function

 29 33  0  0  0  0  0  0  0  0999 V2000
    8.8270   -7.0288   18.4251 C   0  0  0  0  0  0  0  0  0  0  0  0
    9.1576   -4.6236   15.8860 O   0  0  0  0  0  0  0  0  0  0  0  0
    9.1509   -5.9108   17.7177 C   0  0  0  0  0  0  0  0  0  0  0  0
    3.6373   -9.5349   16.0582 N   0  0  0  0  0  0  0  0  0  0  0  0
    9.9275   -4.8001   18.0438 N   0  0  0  0  0  0  0  0  0  0  0  0
    8.5908   -5.7425   16.4412 C   0  0  0  0  0  0  0  0  0  0  0  0
   10.5993   -4.8981   21.6068 C   0  0  0  0  0  0  0  0  0  0  0  0
   10.4258   -3.0106   23.0998 C   0  0  0  0  0  0  0  0  0  0  0  0
   10.2148   -3.4364   25.4200 C   0  0  0  0  0  0  0  0  0  0  0  0
    9.7853   -1.1840   24.4927 C   0  0  0  0  0  0  0  0  0  0  0  0
    5.0276   -8.5227   17.5352 C   0  0  0  0  0  0  0  0  0  0  0  0
    9.8187   -2.0895   25.5800 C   0  0  0  0  0  0  0  0  0  0  0  0
    5.6473   -8.7216   15.3158 C   0  0  0  0  0  0  0  0  0  0  0  0
   10.7581   -3.1233   19.4720 N   0  0  0  0  0  0  0  0  0  0  0  0
    9.9571   -4.0573   16.8866 C   0  0  0  0  0  0  0  0  0  0  0  0
    7.6213   -6.5618   16.0087 C   0  0  0  0  0  0  0  0  0  0  0  0
   10.8583   -2.6527   20.7222 C   0  0  0  0  0  0  0  0  0  0  0  0
   10.6412   -3.5089   21.7936 C   0  0  0  0  0  0  0  0  0  0  0  0
   10.4972   -3.8968   24.1589 C   0  0  0  0  0  0  0  0  0  0  0  0
    5.9260   -8.2736   16.5517 C   0  0  0  0  0  0  0  0  0  0  0  0
    3.8816   -9.1166   17.2493 C   0  0  0  0  0  0  0  0  0  0  0  0
   10.1297   -1.6575   23.2324 C   0  0  0  0  0  0  0  0  0  0  0  0
    9.4684   -1.6929   26.7263 F   0  0  0  0  0  0  0  0  0  0  0  0
    7.7963   -7.7906   17.9837 C   0  0  0  0  0  0  0  0  0  0  0  0
   10.5884   -3.0725   16.7902 O   0  0  0  0  0  0  0  0  0  0  0  0
   10.4323   -5.3494   20.3516 C   0  0  0  0  0  0  0  0  0  0  0  0
    7.1156   -7.5454   16.8218 C   0  0  0  0  0  0  0  0  0  0  0  0
   10.3885   -4.4388   19.2773 C   0  0  0  0  0  0  0  0  0  0  0  0
    4.5160   -9.3822   15.0841 C   0  0  0  0  0  0  0  0  0  0  0  0
  1  3  4  0
  1 24  4  0
  2  6  4  0
  2 15  4  0
  3  5  4  0
  3  6  4  0
  4 21  4  0
  4 29  4  0
  5 15  4  0
  5 28  1  0
  6 16  4  0
  7 18  4  0
  7 26  4  0
  8 18  1  0
  8 19  4  0
  8 22  4  0
  9 12  4  0
  9 19  4  0
 10 12  4  0
 10 22  4  0
 11 20  4  0
 11 21  4  0
 12 23  1  0
 13 20  4  0
 13 29  4  0
 14 17  4  0
 14 28  4  0
 15 25  2  0
 16 27  4  0
 17 18  4  0
 20 27  1  0
 24 27  4  0
 26 28  4  0
M  END
$$$$

 Created by Python create_sdf_string function

 29 33  0  0  0  0  0  0  0  0999 V2000
    8.8270   -7.0288   18.4251 C   0  0  0  0  0  0  0  0  0  0  0  0
    9.1576   -4.6236   15.8860 O   0  0  0  0  0  0  0  0  0  0  0  0
    9.1509   -5.9108   17.7177 C   0  0  0  0  0  0  0  0  0  0  0  0
    3.6373   -9.5349   16.0582 N   0  0  0  0  0  0  0  0  0  0  0  0
    9.9275   -4.8001   18.0438 N   0  0  0  0  0  0  0  0  0  0  0  0
    8.5908   -5.7425   16.4412 C   0  0  0  0  0  0  0  0  0  0  0  0
   10.5993   -4.8981   21.6068 C   0  0  0  0  0  0  0  0  0  0  0  0
   10.4258   -3.0106   23.0998 C   0  0  0  0  0  0  0  0  0  0  0  0
   10.2148   -3.4364   25.4200 C   0  0  0  0  0  0  0  0  0  0  0  0
    9.7853   -1.1840   24.4927 C   0  0  0  0  0  0  0  0  0  0  0  0
    5.0276   -8.5227   17.5352 C   0  0  0  0  0  0  0  0  0  0  0  0
    9.8187   -2.0895   25.5800 C   0  0  0  0  0  0  0  0  0  0  0  0
    5.6473   -8.7216   15.3158 C   0  0  0  0  0  0  0  0  0  0  0  0
   10.7581   -3.1233   19.4720 N   0  0  0  0  0  0  0  0  0  0  0  0
    9.9571   -4.0573   16.8866 C   0  0  0  0  0  0  0  0  0  0  0  0
    7.6213   -6.5618   16.0087 C   0  0  0  0  0  0  0  0  0  0  0  0
   10.8583   -2.6527   20.7222 C   0  0  0  0  0  0  0  0  0  0  0  0
   10.6412   -3.5089   21.7936 C   0  0  0  0  0  0  0  0  0  0  0  0
   10.4972   -3.8968   24.1589 C   0  0  0  0  0  0  0  0  0  0  0  0
    5.9260   -8.2736   16.5517 C   0  0  0  0  0  0  0  0  0  0  0  0
    3.8816   -9.1166   17.2493 C   0  0  0  0  0  0  0  0  0  0  0  0
   10.1297   -1.6575   23.2324 C   0  0  0  0  0  0  0  0  0  0  0  0
    9.4684   -1.6929   26.7263 F   0  0  0  0  0  0  0  0  0  0  0  0
    7.7963   -7.7906   17.9837 C   0  0  0  0  0  0  0  0  0  0  0  0
   10.5884   -3.0725   16.7902 O   0  0  0  0  0  0  0  0  0  0  0  0
   10.4323   -5.3494   20.3516 C   0  0  0  0  0  0  0  0  0  0  0  0
    7.1156   -7.5454   16.8218 C   0  0  0  0  0  0  0  0  0  0  0  0
   10.3885   -4.4388   19.2773 C   0  0  0  0  0  0  0  0  0  0  0  0
    4.5160   -9.3822   15.0841 C   0  0  0  0  0  0  0  0  0  0  0  0
  1  3  4  0
  1 24  4  0
  2  6  4  0
  2 15  4  0
  3  5  4  0
  3  6  4  0
  4 21  4  0
  4 29  4  0
  5 15  4  0
  5 28  1  0
  6 16  4  0
  7 18  4  0
  7 26  4  0
  8 18  1  0
  8 19  4  0
  8 22  4  0
  9 12  4  0
  9 19  4  0
 10 12  4  0
 10 22  4  0
 11 20  4  0
 11 21  4  0
 12 23  1  0
 13 20  4  0
 13 29  4  0
 14 17  4  0
 14 28  4  0
 15 25  2  0
 16 27  4  0
 17 18  4  0
 20 27  1  0
 24 27  4  0
 26 28  4  0
M  END
$$$$

 Created by Python create_sdf_string function

 29 33  0  0  0  0  0  0  0  0999 V2000
    8.8270   -7.0288   18.4251 C   0  0  0  0  0  0  0  0  0  0  0  0
    9.1576   -4.6236   15.8860 O   0  0  0  0  0  0  0  0  0  0  0  0
    9.1509   -5.9108   17.7177 C   0  0  0  0  0  0  0  0  0  0  0  0
    3.6373   -9.5349   16.0582 N   0  0  0  0  0  0  0  0  0  0  0  0
    9.9275   -4.8001   18.0438 N   0  0  0  0  0  0  0  0  0  0  0  0
    8.5908   -5.7425   16.4412 C   0  0  0  0  0  0  0  0  0  0  0  0
   10.5993   -4.8981   21.6068 C   0  0  0  0  0  0  0  0  0  0  0  0
   10.4258   -3.0106   23.0998 C   0  0  0  0  0  0  0  0  0  0  0  0
   10.2148   -3.4364   25.4200 C   0  0  0  0  0  0  0  0  0  0  0  0
    9.7853   -1.1840   24.4927 C   0  0  0  0  0  0  0  0  0  0  0  0
    5.0276   -8.5227   17.5352 C   0  0  0  0  0  0  0  0  0  0  0  0
    9.8187   -2.0895   25.5800 C   0  0  0  0  0  0  0  0  0  0  0  0
    5.6473   -8.7216   15.3158 C   0  0  0  0  0  0  0  0  0  0  0  0
   10.7581   -3.1233   19.4720 N   0  0  0  0  0  0  0  0  0  0  0  0
    9.9571   -4.0573   16.8866 C   0  0  0  0  0  0  0  0  0  0  0  0
    7.6213   -6.5618   16.0087 C   0  0  0  0  0  0  0  0  0  0  0  0
   10.8583   -2.6527   20.7222 C   0  0  0  0  0  0  0  0  0  0  0  0
   10.6412   -3.5089   21.7936 C   0  0  0  0  0  0  0  0  0  0  0  0
   10.4972   -3.8968   24.1589 C   0  0  0  0  0  0  0  0  0  0  0  0
    5.9260   -8.2736   16.5517 C   0  0  0  0  0  0  0  0  0  0  0  0
    3.8816   -9.1166   17.2493 C   0  0  0  0  0  0  0  0  0  0  0  0
   10.1297   -1.6575   23.2324 C   0  0  0  0  0  0  0  0  0  0  0  0
    9.4684   -1.6929   26.7263 F   0  0  0  0  0  0  0  0  0  0  0  0
    7.7963   -7.7906   17.9837 C   0  0  0  0  0  0  0  0  0  0  0  0
   10.5884   -3.0725   16.7902 O   0  0  0  0  0  0  0  0  0  0  0  0
   10.4323   -5.3494   20.3516 C   0  0  0  0  0  0  0  0  0  0  0  0
    7.1156   -7.5454   16.8218 C   0  0  0  0  0  0  0  0  0  0  0  0
   10.3885   -4.4388   19.2773 C   0  0  0  0  0  0  0  0  0  0  0  0
    4.5160   -9.3822   15.0841 C   0  0  0  0  0  0  0  0  0  0  0  0
  1  3  4  0
  1 24  4  0
  2  6  4  0
  2 15  4  0
  3  5  4  0
  3  6  4  0
  4 21  4  0
  4 29  4  0
  5 15  4  0
  5 28  1  0
  6 16  4  0
  7 18  4  0
  7 26  4  0
  8 18  1  0
  8 19  4  0
  8 22  4  0
  9 12  4  0
  9 19  4  0
 10 12  4  0
 10 22  4  0
 11 20  4  0
 11 21  4  0
 12 23  1  0
 13 20  4  0
 13 29  4  0
 14 17  4  0
 14 28  4  0
 15 25  2  0
 16 27  4  0
 17 18  4  0
 20 27  1  0
 24 27  4  0
 26 28  4  0
M  END
$$$$

 Created by Python create_sdf_string function

 29 33  0  0  0  0  0  0  0  0999 V2000
    8.8270   -7.0288   18.4251 C   0  0  0  0  0  0  0  0  0  0  0  0
    9.1576   -4.6236   15.8860 O   0  0  0  0  0  0  0  0  0  0  0  0
    9.1509   -5.9108   17.7177 C   0  0  0  0  0  0  0  0  0  0  0  0
    3.6373   -9.5349   16.0582 N   0  0  0  0  0  0  0  0  0  0  0  0
    9.9275   -4.8001   18.0438 N   0  0  0  0  0  0  0  0  0  0  0  0
    8.5908   -5.7425   16.4412 C   0  0  0  0  0  0  0  0  0  0  0  0
   10.5993   -4.8981   21.6068 C   0  0  0  0  0  0  0  0  0  0  0  0
   10.4258   -3.0106   23.0998 C   0  0  0  0  0  0  0  0  0  0  0  0
   10.2148   -3.4364   25.4200 C   0  0  0  0  0  0  0  0  0  0  0  0
    9.7853   -1.1840   24.4927 C   0  0  0  0  0  0  0  0  0  0  0  0
    5.0276   -8.5227   17.5352 C   0  0  0  0  0  0  0  0  0  0  0  0
    9.8187   -2.0895   25.5800 C   0  0  0  0  0  0  0  0  0  0  0  0
    5.6473   -8.7216   15.3158 C   0  0  0  0  0  0  0  0  0  0  0  0
   10.7581   -3.1233   19.4720 N   0  0  0  0  0  0  0  0  0  0  0  0
    9.9571   -4.0573   16.8866 C   0  0  0  0  0  0  0  0  0  0  0  0
    7.6213   -6.5618   16.0087 C   0  0  0  0  0  0  0  0  0  0  0  0
   10.8583   -2.6527   20.7222 C   0  0  0  0  0  0  0  0  0  0  0  0
   10.6412   -3.5089   21.7936 C   0  0  0  0  0  0  0  0  0  0  0  0
   10.4972   -3.8968   24.1589 C   0  0  0  0  0  0  0  0  0  0  0  0
    5.9260   -8.2736   16.5517 C   0  0  0  0  0  0  0  0  0  0  0  0
    3.8816   -9.1166   17.2493 C   0  0  0  0  0  0  0  0  0  0  0  0
   10.1297   -1.6575   23.2324 C   0  0  0  0  0  0  0  0  0  0  0  0
    9.4684   -1.6929   26.7263 F   0  0  0  0  0  0  0  0  0  0  0  0
    7.7963   -7.7906   17.9837 C   0  0  0  0  0  0  0  0  0  0  0  0
   10.5884   -3.0725   16.7902 O   0  0  0  0  0  0  0  0  0  0  0  0
   10.4323   -5.3494   20.3516 C   0  0  0  0  0  0  0  0  0  0  0  0
    7.1156   -7.5454   16.8218 C   0  0  0  0  0  0  0  0  0  0  0  0
   10.3885   -4.4388   19.2773 C   0  0  0  0  0  0  0  0  0  0  0  0
    4.5160   -9.3822   15.0841 C   0  0  0  0  0  0  0  0  0  0  0  0
  1  3  4  0
  1 24  4  0
  2  6  4  0
  2 15  4  0
  3  5  4  0
  3  6  4  0
  4 21  4  0
  4 29  4  0
  5 15  4  0
  5 28  1  0
  6 16  4  0
  7 18  4  0
  7 26  4  0
  8 18  1  0
  8 19  4  0
  8 22  4  0
  9 12  4  0
  9 19  4  0
 10 12  4  0
 10 22  4  0
 11 20  4  0
 11 21  4  0
 12 23  1  0
 13 20  4  0
 13 29  4  0
 14 17  4  0
 14 28  4  0
 15 25  2  0
 16 27  4  0
 17 18  4  0
 20 27  1  0
 24 27  4  0
 26 28  4  0
M  END
$$$$

 Created by Python create_sdf_string function

 29 33  0  0  0  0  0  0  0  0999 V2000
    8.8270   -7.0288   18.4251 C   0  0  0  0  0  0  0  0  0  0  0  0
    9.1576   -4.6236   15.8860 O   0  0  0  0  0  0  0  0  0  0  0  0
    9.1509   -5.9108   17.7177 C   0  0  0  0  0  0  0  0  0  0  0  0
    3.6373   -9.5349   16.0582 N   0  0  0  0  0  0  0  0  0  0  0  0
    9.9275   -4.8001   18.0438 N   0  0  0  0  0  0  0  0  0  0  0  0
    8.5908   -5.7425   16.4412 C   0  0  0  0  0  0  0  0  0  0  0  0
   10.5993   -4.8981   21.6068 C   0  0  0  0  0  0  0  0  0  0  0  0
   10.4258   -3.0106   23.0998 C   0  0  0  0  0  0  0  0  0  0  0  0
   10.2148   -3.4364   25.4200 C   0  0  0  0  0  0  0  0  0  0  0  0
    9.7853   -1.1840   24.4927 C   0  0  0  0  0  0  0  0  0  0  0  0
    5.0276   -8.5227   17.5352 C   0  0  0  0  0  0  0  0  0  0  0  0
    9.8187   -2.0895   25.5800 C   0  0  0  0  0  0  0  0  0  0  0  0
    5.6473   -8.7216   15.3158 C   0  0  0  0  0  0  0  0  0  0  0  0
   10.7581   -3.1233   19.4720 N   0  0  0  0  0  0  0  0  0  0  0  0
    9.9571   -4.0573   16.8866 C   0  0  0  0  0  0  0  0  0  0  0  0
    7.6213   -6.5618   16.0087 C   0  0  0  0  0  0  0  0  0  0  0  0
   10.8583   -2.6527   20.7222 C   0  0  0  0  0  0  0  0  0  0  0  0
   10.6412   -3.5089   21.7936 C   0  0  0  0  0  0  0  0  0  0  0  0
   10.4972   -3.8968   24.1589 C   0  0  0  0  0  0  0  0  0  0  0  0
    5.9260   -8.2736   16.5517 C   0  0  0  0  0  0  0  0  0  0  0  0
    3.8816   -9.1166   17.2493 C   0  0  0  0  0  0  0  0  0  0  0  0
   10.1297   -1.6575   23.2324 C   0  0  0  0  0  0  0  0  0  0  0  0
    9.4684   -1.6929   26.7263 F   0  0  0  0  0  0  0  0  0  0  0  0
    7.7963   -7.7906   17.9837 C   0  0  0  0  0  0  0  0  0  0  0  0
   10.5884   -3.0725   16.7902 O   0  0  0  0  0  0  0  0  0  0  0  0
   10.4323   -5.3494   20.3516 C   0  0  0  0  0  0  0  0  0  0  0  0
    7.1156   -7.5454   16.8218 C   0  0  0  0  0  0  0  0  0  0  0  0
   10.3885   -4.4388   19.2773 C   0  0  0  0  0  0  0  0  0  0  0  0
    4.5160   -9.3822   15.0841 C   0  0  0  0  0  0  0  0  0  0  0  0
  1  3  4  0
  1 24  4  0
  2  6  4  0
  2 15  4  0
  3  5  4  0
  3  6  4  0
  4 21  4  0
  4 29  4  0
  5 15  4  0
  5 28  1  0
  6 16  4  0
  7 18  4  0
  7 26  4  0
  8 18  1  0
  8 19  4  0
  8 22  4  0
  9 12  4  0
  9 19  4  0
 10 12  4  0
 10 22  4  0
 11 20  4  0
 11 21  4  0
 12 23  1  0
 13 20  4  0
 13 29  4  0
 14 17  4  0
 14 28  4  0
 15 25  2  0
 16 27  4  0
 17 18  4  0
 20 27  1  0
 24 27  4  0
 26 28  4  0
M  END
$$$$

 Created by Python create_sdf_string function

 29 33  0  0  0  0  0  0  0  0999 V2000
    8.8270   -7.0288   18.4251 C   0  0  0  0  0  0  0  0  0  0  0  0
    9.1576   -4.6236   15.8860 O   0  0  0  0  0  0  0  0  0  0  0  0
    9.1509   -5.9108   17.7177 C   0  0  0  0  0  0  0  0  0  0  0  0
    3.6373   -9.5349   16.0582 N   0  0  0  0  0  0  0  0  0  0  0  0
    9.9275   -4.8001   18.0438 N   0  0  0  0  0  0  0  0  0  0  0  0
    8.5908   -5.7425   16.4412 C   0  0  0  0  0  0  0  0  0  0  0  0
   10.5993   -4.8981   21.6068 C   0  0  0  0  0  0  0  0  0  0  0  0
   10.4258   -3.0106   23.0998 C   0  0  0  0  0  0  0  0  0  0  0  0
   10.2148   -3.4364   25.4200 C   0  0  0  0  0  0  0  0  0  0  0  0
    9.7853   -1.1840   24.4927 C   0  0  0  0  0  0  0  0  0  0  0  0
    5.0276   -8.5227   17.5352 C   0  0  0  0  0  0  0  0  0  0  0  0
    9.8187   -2.0895   25.5800 C   0  0  0  0  0  0  0  0  0  0  0  0
    5.6473   -8.7216   15.3158 C   0  0  0  0  0  0  0  0  0  0  0  0
   10.7581   -3.1233   19.4720 N   0  0  0  0  0  0  0  0  0  0  0  0
    9.9571   -4.0573   16.8866 C   0  0  0  0  0  0  0  0  0  0  0  0
    7.6213   -6.5618   16.0087 C   0  0  0  0  0  0  0  0  0  0  0  0
   10.8583   -2.6527   20.7222 C   0  0  0  0  0  0  0  0  0  0  0  0
   10.6412   -3.5089   21.7936 C   0  0  0  0  0  0  0  0  0  0  0  0
   10.4972   -3.8968   24.1589 C   0  0  0  0  0  0  0  0  0  0  0  0
    5.9260   -8.2736   16.5517 C   0  0  0  0  0  0  0  0  0  0  0  0
    3.8816   -9.1166   17.2493 C   0  0  0  0  0  0  0  0  0  0  0  0
   10.1297   -1.6575   23.2324 C   0  0  0  0  0  0  0  0  0  0  0  0
    9.4684   -1.6929   26.7263 F   0  0  0  0  0  0  0  0  0  0  0  0
    7.7963   -7.7906   17.9837 C   0  0  0  0  0  0  0  0  0  0  0  0
   10.5884   -3.0725   16.7902 O   0  0  0  0  0  0  0  0  0  0  0  0
   10.4323   -5.3494   20.3516 C   0  0  0  0  0  0  0  0  0  0  0  0
    7.1156   -7.5454   16.8218 C   0  0  0  0  0  0  0  0  0  0  0  0
   10.3885   -4.4388   19.2773 C   0  0  0  0  0  0  0  0  0  0  0  0
    4.5160   -9.3822   15.0841 C   0  0  0  0  0  0  0  0  0  0  0  0
  1  3  4  0
  1 24  4  0
  2  6  4  0
  2 15  4  0
  3  5  4  0
  3  6  4  0
  4 21  4  0
  4 29  4  0
  5 15  4  0
  5 28  1  0
  6 16  4  0
  7 18  4  0
  7 26  4  0
  8 18  1  0
  8 19  4  0
  8 22  4  0
  9 12  4  0
  9 19  4  0
 10 12  4  0
 10 22  4  0
 11 20  4  0
 11 21  4  0
 12 23  1  0
 13 20  4  0
 13 29  4  0
 14 17  4  0
 14 28  4  0
 15 25  2  0
 16 27  4  0
 17 18  4  0
 20 27  1  0
 24 27  4  0
 26 28  4  0
M  END
$$$$

 Created by Python create_sdf_string function

 29 33  0  0  0  0  0  0  0  0999 V2000
    8.8270   -7.0288   18.4251 C   0  0  0  0  0  0  0  0  0  0  0  0
    9.1576   -4.6236   15.8860 O   0  0  0  0  0  0  0  0  0  0  0  0
    9.1509   -5.9108   17.7177 C   0  0  0  0  0  0  0  0  0  0  0  0
    3.6373   -9.5349   16.0582 N   0  0  0  0  0  0  0  0  0  0  0  0
    9.9275   -4.8001   18.0438 N   0  0  0  0  0  0  0  0  0  0  0  0
    8.5908   -5.7425   16.4412 C   0  0  0  0  0  0  0  0  0  0  0  0
   10.5993   -4.8981   21.6068 C   0  0  0  0  0  0  0  0  0  0  0  0
   10.4258   -3.0106   23.0998 C   0  0  0  0  0  0  0  0  0  0  0  0
   10.2148   -3.4364   25.4200 C   0  0  0  0  0  0  0  0  0  0  0  0
    9.7853   -1.1840   24.4927 C   0  0  0  0  0  0  0  0  0  0  0  0
    5.0276   -8.5227   17.5352 C   0  0  0  0  0  0  0  0  0  0  0  0
    9.8187   -2.0895   25.5800 C   0  0  0  0  0  0  0  0  0  0  0  0
    5.6473   -8.7216   15.3158 C   0  0  0  0  0  0  0  0  0  0  0  0
   10.7581   -3.1233   19.4720 N   0  0  0  0  0  0  0  0  0  0  0  0
    9.9571   -4.0573   16.8866 C   0  0  0  0  0  0  0  0  0  0  0  0
    7.6213   -6.5618   16.0087 C   0  0  0  0  0  0  0  0  0  0  0  0
   10.8583   -2.6527   20.7222 C   0  0  0  0  0  0  0  0  0  0  0  0
   10.6412   -3.5089   21.7936 C   0  0  0  0  0  0  0  0  0  0  0  0
   10.4972   -3.8968   24.1589 C   0  0  0  0  0  0  0  0  0  0  0  0
    5.9260   -8.2736   16.5517 C   0  0  0  0  0  0  0  0  0  0  0  0
    3.8816   -9.1166   17.2493 C   0  0  0  0  0  0  0  0  0  0  0  0
   10.1297   -1.6575   23.2324 C   0  0  0  0  0  0  0  0  0  0  0  0
    9.4684   -1.6929   26.7263 F   0  0  0  0  0  0  0  0  0  0  0  0
    7.7963   -7.7906   17.9837 C   0  0  0  0  0  0  0  0  0  0  0  0
   10.5884   -3.0725   16.7902 O   0  0  0  0  0  0  0  0  0  0  0  0
   10.4323   -5.3494   20.3516 C   0  0  0  0  0  0  0  0  0  0  0  0
    7.1156   -7.5454   16.8218 C   0  0  0  0  0  0  0  0  0  0  0  0
   10.3885   -4.4388   19.2773 C   0  0  0  0  0  0  0  0  0  0  0  0
    4.5160   -9.3822   15.0841 C   0  0  0  0  0  0  0  0  0  0  0  0
  1  3  4  0
  1 24  4  0
  2  6  4  0
  2 15  4  0
  3  5  4  0
  3  6  4  0
  4 21  4  0
  4 29  4  0
  5 15  4  0
  5 28  1  0
  6 16  4  0
  7 18  4  0
  7 26  4  0
  8 18  1  0
  8 19  4  0
  8 22  4  0
  9 12  4  0
  9 19  4  0
 10 12  4  0
 10 22  4  0
 11 20  4  0
 11 21  4  0
 12 23  1  0
 13 20  4  0
 13 29  4  0
 14 17  4  0
 14 28  4  0
 15 25  2  0
 16 27  4  0
 17 18  4  0
 20 27  1  0
 24 27  4  0
 26 28  4  0
M  END
$$$$

 Created by Python create_sdf_string function

 29 33  0  0  0  0  0  0  0  0999 V2000
    8.8270   -7.0288   18.4251 C   0  0  0  0  0  0  0  0  0  0  0  0
    9.1576   -4.6236   15.8860 O   0  0  0  0  0  0  0  0  0  0  0  0
    9.1509   -5.9108   17.7177 C   0  0  0  0  0  0  0  0  0  0  0  0
    3.6373   -9.5349   16.0582 N   0  0  0  0  0  0  0  0  0  0  0  0
    9.9275   -4.8001   18.0438 N   0  0  0  0  0  0  0  0  0  0  0  0
    8.5908   -5.7425   16.4412 C   0  0  0  0  0  0  0  0  0  0  0  0
   10.5993   -4.8981   21.6068 C   0  0  0  0  0  0  0  0  0  0  0  0
   10.4258   -3.0106   23.0998 C   0  0  0  0  0  0  0  0  0  0  0  0
   10.2148   -3.4364   25.4200 C   0  0  0  0  0  0  0  0  0  0  0  0
    9.7853   -1.1840   24.4927 C   0  0  0  0  0  0  0  0  0  0  0  0
    5.0276   -8.5227   17.5352 C   0  0  0  0  0  0  0  0  0  0  0  0
    9.8187   -2.0895   25.5800 C   0  0  0  0  0  0  0  0  0  0  0  0
    5.6473   -8.7216   15.3158 C   0  0  0  0  0  0  0  0  0  0  0  0
   10.7581   -3.1233   19.4720 N   0  0  0  0  0  0  0  0  0  0  0  0
    9.9571   -4.0573   16.8866 C   0  0  0  0  0  0  0  0  0  0  0  0
    7.6213   -6.5618   16.0087 C   0  0  0  0  0  0  0  0  0  0  0  0
   10.8583   -2.6527   20.7222 C   0  0  0  0  0  0  0  0  0  0  0  0
   10.6412   -3.5089   21.7936 C   0  0  0  0  0  0  0  0  0  0  0  0
   10.4972   -3.8968   24.1589 C   0  0  0  0  0  0  0  0  0  0  0  0
    5.9260   -8.2736   16.5517 C   0  0  0  0  0  0  0  0  0  0  0  0
    3.8816   -9.1166   17.2493 C   0  0  0  0  0  0  0  0  0  0  0  0
   10.1297   -1.6575   23.2324 C   0  0  0  0  0  0  0  0  0  0  0  0
    9.4684   -1.6929   26.7263 F   0  0  0  0  0  0  0  0  0  0  0  0
    7.7963   -7.7906   17.9837 C   0  0  0  0  0  0  0  0  0  0  0  0
   10.5884   -3.0725   16.7902 O   0  0  0  0  0  0  0  0  0  0  0  0
   10.4323   -5.3494   20.3516 C   0  0  0  0  0  0  0  0  0  0  0  0
    7.1156   -7.5454   16.8218 C   0  0  0  0  0  0  0  0  0  0  0  0
   10.3885   -4.4388   19.2773 C   0  0  0  0  0  0  0  0  0  0  0  0
    4.5160   -9.3822   15.0841 C   0  0  0  0  0  0  0  0  0  0  0  0
  1  3  4  0
  1 24  4  0
  2  6  4  0
  2 15  4  0
  3  5  4  0
  3  6  4  0
  4 21  4  0
  4 29  4  0
  5 15  4  0
  5 28  1  0
  6 16  4  0
  7 18  4  0
  7 26  4  0
  8 18  1  0
  8 19  4  0
  8 22  4  0
  9 12  4  0
  9 19  4  0
 10 12  4  0
 10 22  4  0
 11 20  4  0
 11 21  4  0
 12 23  1  0
 13 20  4  0
 13 29  4  0
 14 17  4  0
 14 28  4  0
 15 25  2  0
 16 27  4  0
 17 18  4  0
 20 27  1  0
 24 27  4  0
 26 28  4  0
M  END
$$$$

 Created by Python create_sdf_string function

 29 33  0  0  0  0  0  0  0  0999 V2000
    8.8270   -7.0288   18.4251 C   0  0  0  0  0  0  0  0  0  0  0  0
    9.1576   -4.6236   15.8860 O   0  0  0  0  0  0  0  0  0  0  0  0
    9.1509   -5.9108   17.7177 C   0  0  0  0  0  0  0  0  0  0  0  0
    3.6373   -9.5349   16.0582 N   0  0  0  0  0  0  0  0  0  0  0  0
    9.9275   -4.8001   18.0438 N   0  0  0  0  0  0  0  0  0  0  0  0
    8.5908   -5.7425   16.4412 C   0  0  0  0  0  0  0  0  0  0  0  0
   10.5993   -4.8981   21.6068 C   0  0  0  0  0  0  0  0  0  0  0  0
   10.4258   -3.0106   23.0998 C   0  0  0  0  0  0  0  0  0  0  0  0
   10.2148   -3.4364   25.4200 C   0  0  0  0  0  0  0  0  0  0  0  0
    9.7853   -1.1840   24.4927 C   0  0  0  0  0  0  0  0  0  0  0  0
    5.0276   -8.5227   17.5352 C   0  0  0  0  0  0  0  0  0  0  0  0
    9.8187   -2.0895   25.5800 C   0  0  0  0  0  0  0  0  0  0  0  0
    5.6473   -8.7216   15.3158 C   0  0  0  0  0  0  0  0  0  0  0  0
   10.7581   -3.1233   19.4720 N   0  0  0  0  0  0  0  0  0  0  0  0
    9.9571   -4.0573   16.8866 C   0  0  0  0  0  0  0  0  0  0  0  0
    7.6213   -6.5618   16.0087 C   0  0  0  0  0  0  0  0  0  0  0  0
   10.8583   -2.6527   20.7222 C   0  0  0  0  0  0  0  0  0  0  0  0
   10.6412   -3.5089   21.7936 C   0  0  0  0  0  0  0  0  0  0  0  0
   10.4972   -3.8968   24.1589 C   0  0  0  0  0  0  0  0  0  0  0  0
    5.9260   -8.2736   16.5517 C   0  0  0  0  0  0  0  0  0  0  0  0
    3.8816   -9.1166   17.2493 C   0  0  0  0  0  0  0  0  0  0  0  0
   10.1297   -1.6575   23.2324 C   0  0  0  0  0  0  0  0  0  0  0  0
    9.4684   -1.6929   26.7263 F   0  0  0  0  0  0  0  0  0  0  0  0
    7.7963   -7.7906   17.9837 C   0  0  0  0  0  0  0  0  0  0  0  0
   10.5884   -3.0725   16.7902 O   0  0  0  0  0  0  0  0  0  0  0  0
   10.4323   -5.3494   20.3516 C   0  0  0  0  0  0  0  0  0  0  0  0
    7.1156   -7.5454   16.8218 C   0  0  0  0  0  0  0  0  0  0  0  0
   10.3885   -4.4388   19.2773 C   0  0  0  0  0  0  0  0  0  0  0  0
    4.5160   -9.3822   15.0841 C   0  0  0  0  0  0  0  0  0  0  0  0
  1  3  4  0
  1 24  4  0
  2  6  4  0
  2 15  4  0
  3  5  4  0
  3  6  4  0
  4 21  4  0
  4 29  4  0
  5 15  4  0
  5 28  1  0
  6 16  4  0
  7 18  4  0
  7 26  4  0
  8 18  1  0
  8 19  4  0
  8 22  4  0
  9 12  4  0
  9 19  4  0
 10 12  4  0
 10 22  4  0
 11 20  4  0
 11 21  4  0
 12 23  1  0
 13 20  4  0
 13 29  4  0
 14 17  4  0
 14 28  4  0
 15 25  2  0
 16 27  4  0
 17 18  4  0
 20 27  1  0
 24 27  4  0
 26 28  4  0
M  END
$$$$

 Created by Python create_sdf_string function

 29 33  0  0  0  0  0  0  0  0999 V2000
    8.8270   -7.0288   18.4251 C   0  0  0  0  0  0  0  0  0  0  0  0
    9.1576   -4.6236   15.8860 O   0  0  0  0  0  0  0  0  0  0  0  0
    9.1509   -5.9108   17.7177 C   0  0  0  0  0  0  0  0  0  0  0  0
    3.6373   -9.5349   16.0582 N   0  0  0  0  0  0  0  0  0  0  0  0
    9.9275   -4.8001   18.0438 N   0  0  0  0  0  0  0  0  0  0  0  0
    8.5908   -5.7425   16.4412 C   0  0  0  0  0  0  0  0  0  0  0  0
   10.5993   -4.8981   21.6068 C   0  0  0  0  0  0  0  0  0  0  0  0
   10.4258   -3.0106   23.0998 C   0  0  0  0  0  0  0  0  0  0  0  0
   10.2148   -3.4364   25.4200 C   0  0  0  0  0  0  0  0  0  0  0  0
    9.7853   -1.1840   24.4927 C   0  0  0  0  0  0  0  0  0  0  0  0
    5.0276   -8.5227   17.5352 C   0  0  0  0  0  0  0  0  0  0  0  0
    9.8187   -2.0895   25.5800 C   0  0  0  0  0  0  0  0  0  0  0  0
    5.6473   -8.7216   15.3158 C   0  0  0  0  0  0  0  0  0  0  0  0
   10.7581   -3.1233   19.4720 N   0  0  0  0  0  0  0  0  0  0  0  0
    9.9571   -4.0573   16.8866 C   0  0  0  0  0  0  0  0  0  0  0  0
    7.6213   -6.5618   16.0087 C   0  0  0  0  0  0  0  0  0  0  0  0
   10.8583   -2.6527   20.7222 C   0  0  0  0  0  0  0  0  0  0  0  0
   10.6412   -3.5089   21.7936 C   0  0  0  0  0  0  0  0  0  0  0  0
   10.4972   -3.8968   24.1589 C   0  0  0  0  0  0  0  0  0  0  0  0
    5.9260   -8.2736   16.5517 C   0  0  0  0  0  0  0  0  0  0  0  0
    3.8816   -9.1166   17.2493 C   0  0  0  0  0  0  0  0  0  0  0  0
   10.1297   -1.6575   23.2324 C   0  0  0  0  0  0  0  0  0  0  0  0
    9.4684   -1.6929   26.7263 F   0  0  0  0  0  0  0  0  0  0  0  0
    7.7963   -7.7906   17.9837 C   0  0  0  0  0  0  0  0  0  0  0  0
   10.5884   -3.0725   16.7902 O   0  0  0  0  0  0  0  0  0  0  0  0
   10.4323   -5.3494   20.3516 C   0  0  0  0  0  0  0  0  0  0  0  0
    7.1156   -7.5454   16.8218 C   0  0  0  0  0  0  0  0  0  0  0  0
   10.3885   -4.4388   19.2773 C   0  0  0  0  0  0  0  0  0  0  0  0
    4.5160   -9.3822   15.0841 C   0  0  0  0  0  0  0  0  0  0  0  0
  1  3  4  0
  1 24  4  0
  2  6  4  0
  2 15  4  0
  3  5  4  0
  3  6  4  0
  4 21  4  0
  4 29  4  0
  5 15  4  0
  5 28  1  0
  6 16  4  0
  7 18  4  0
  7 26  4  0
  8 18  1  0
  8 19  4  0
  8 22  4  0
  9 12  4  0
  9 19  4  0
 10 12  4  0
 10 22  4  0
 11 20  4  0
 11 21  4  0
 12 23  1  0
 13 20  4  0
 13 29  4  0
 14 17  4  0
 14 28  4  0
 15 25  2  0
 16 27  4  0
 17 18  4  0
 20 27  1  0
 24 27  4  0
 26 28  4  0
M  END
$$$$

 Created by Python create_sdf_string function

 29 33  0  0  0  0  0  0  0  0999 V2000
    8.8270   -7.0288   18.4251 C   0  0  0  0  0  0  0  0  0  0  0  0
    9.1576   -4.6236   15.8860 O   0  0  0  0  0  0  0  0  0  0  0  0
    9.1509   -5.9108   17.7177 C   0  0  0  0  0  0  0  0  0  0  0  0
    3.6373   -9.5349   16.0582 N   0  0  0  0  0  0  0  0  0  0  0  0
    9.9275   -4.8001   18.0438 N   0  0  0  0  0  0  0  0  0  0  0  0
    8.5908   -5.7425   16.4412 C   0  0  0  0  0  0  0  0  0  0  0  0
   10.5993   -4.8981   21.6068 C   0  0  0  0  0  0  0  0  0  0  0  0
   10.4258   -3.0106   23.0998 C   0  0  0  0  0  0  0  0  0  0  0  0
   10.2148   -3.4364   25.4200 C   0  0  0  0  0  0  0  0  0  0  0  0
    9.7853   -1.1840   24.4927 C   0  0  0  0  0  0  0  0  0  0  0  0
    5.0276   -8.5227   17.5352 C   0  0  0  0  0  0  0  0  0  0  0  0
    9.8187   -2.0895   25.5800 C   0  0  0  0  0  0  0  0  0  0  0  0
    5.6473   -8.7216   15.3158 C   0  0  0  0  0  0  0  0  0  0  0  0
   10.7581   -3.1233   19.4720 N   0  0  0  0  0  0  0  0  0  0  0  0
    9.9571   -4.0573   16.8866 C   0  0  0  0  0  0  0  0  0  0  0  0
    7.6213   -6.5618   16.0087 C   0  0  0  0  0  0  0  0  0  0  0  0
   10.8583   -2.6527   20.7222 C   0  0  0  0  0  0  0  0  0  0  0  0
   10.6412   -3.5089   21.7936 C   0  0  0  0  0  0  0  0  0  0  0  0
   10.4972   -3.8968   24.1589 C   0  0  0  0  0  0  0  0  0  0  0  0
    5.9260   -8.2736   16.5517 C   0  0  0  0  0  0  0  0  0  0  0  0
    3.8816   -9.1166   17.2493 C   0  0  0  0  0  0  0  0  0  0  0  0
   10.1297   -1.6575   23.2324 C   0  0  0  0  0  0  0  0  0  0  0  0
    9.4684   -1.6929   26.7263 F   0  0  0  0  0  0  0  0  0  0  0  0
    7.7963   -7.7906   17.9837 C   0  0  0  0  0  0  0  0  0  0  0  0
   10.5884   -3.0725   16.7902 O   0  0  0  0  0  0  0  0  0  0  0  0
   10.4323   -5.3494   20.3516 C   0  0  0  0  0  0  0  0  0  0  0  0
    7.1156   -7.5454   16.8218 C   0  0  0  0  0  0  0  0  0  0  0  0
   10.3885   -4.4388   19.2773 C   0  0  0  0  0  0  0  0  0  0  0  0
    4.5160   -9.3822   15.0841 C   0  0  0  0  0  0  0  0  0  0  0  0
  1  3  4  0
  1 24  4  0
  2  6  4  0
  2 15  4  0
  3  5  4  0
  3  6  4  0
  4 21  4  0
  4 29  4  0
  5 15  4  0
  5 28  1  0
  6 16  4  0
  7 18  4  0
  7 26  4  0
  8 18  1  0
  8 19  4  0
  8 22  4  0
  9 12  4  0
  9 19  4  0
 10 12  4  0
 10 22  4  0
 11 20  4  0
 11 21  4  0
 12 23  1  0
 13 20  4  0
 13 29  4  0
 14 17  4  0
 14 28  4  0
 15 25  2  0
 16 27  4  0
 17 18  4  0
 20 27  1  0
 24 27  4  0
 26 28  4  0
M  END
$$$$

 Created by Python create_sdf_string function

 29 33  0  0  0  0  0  0  0  0999 V2000
    8.8270   -7.0288   18.4251 C   0  0  0  0  0  0  0  0  0  0  0  0
    9.1576   -4.6236   15.8860 O   0  0  0  0  0  0  0  0  0  0  0  0
    9.1509   -5.9108   17.7177 C   0  0  0  0  0  0  0  0  0  0  0  0
    3.6373   -9.5349   16.0582 N   0  0  0  0  0  0  0  0  0  0  0  0
    9.9275   -4.8001   18.0438 N   0  0  0  0  0  0  0  0  0  0  0  0
    8.5908   -5.7425   16.4412 C   0  0  0  0  0  0  0  0  0  0  0  0
   10.5993   -4.8981   21.6068 C   0  0  0  0  0  0  0  0  0  0  0  0
   10.4258   -3.0106   23.0998 C   0  0  0  0  0  0  0  0  0  0  0  0
   10.2148   -3.4364   25.4200 C   0  0  0  0  0  0  0  0  0  0  0  0
    9.7853   -1.1840   24.4927 C   0  0  0  0  0  0  0  0  0  0  0  0
    5.0276   -8.5227   17.5352 C   0  0  0  0  0  0  0  0  0  0  0  0
    9.8187   -2.0895   25.5800 C   0  0  0  0  0  0  0  0  0  0  0  0
    5.6473   -8.7216   15.3158 C   0  0  0  0  0  0  0  0  0  0  0  0
   10.7581   -3.1233   19.4720 N   0  0  0  0  0  0  0  0  0  0  0  0
    9.9571   -4.0573   16.8866 C   0  0  0  0  0  0  0  0  0  0  0  0
    7.6213   -6.5618   16.0087 C   0  0  0  0  0  0  0  0  0  0  0  0
   10.8583   -2.6527   20.7222 C   0  0  0  0  0  0  0  0  0  0  0  0
   10.6412   -3.5089   21.7936 C   0  0  0  0  0  0  0  0  0  0  0  0
   10.4972   -3.8968   24.1589 C   0  0  0  0  0  0  0  0  0  0  0  0
    5.9260   -8.2736   16.5517 C   0  0  0  0  0  0  0  0  0  0  0  0
    3.8816   -9.1166   17.2493 C   0  0  0  0  0  0  0  0  0  0  0  0
   10.1297   -1.6575   23.2324 C   0  0  0  0  0  0  0  0  0  0  0  0
    9.4684   -1.6929   26.7263 F   0  0  0  0  0  0  0  0  0  0  0  0
    7.7963   -7.7906   17.9837 C   0  0  0  0  0  0  0  0  0  0  0  0
   10.5884   -3.0725   16.7902 O   0  0  0  0  0  0  0  0  0  0  0  0
   10.4323   -5.3494   20.3516 C   0  0  0  0  0  0  0  0  0  0  0  0
    7.1156   -7.5454   16.8218 C   0  0  0  0  0  0  0  0  0  0  0  0
   10.3885   -4.4388   19.2773 C   0  0  0  0  0  0  0  0  0  0  0  0
    4.5160   -9.3822   15.0841 C   0  0  0  0  0  0  0  0  0  0  0  0
  1  3  4  0
  1 24  4  0
  2  6  4  0
  2 15  4  0
  3  5  4  0
  3  6  4  0
  4 21  4  0
  4 29  4  0
  5 15  4  0
  5 28  1  0
  6 16  4  0
  7 18  4  0
  7 26  4  0
  8 18  1  0
  8 19  4  0
  8 22  4  0
  9 12  4  0
  9 19  4  0
 10 12  4  0
 10 22  4  0
 11 20  4  0
 11 21  4  0
 12 23  1  0
 13 20  4  0
 13 29  4  0
 14 17  4  0
 14 28  4  0
 15 25  2  0
 16 27  4  0
 17 18  4  0
 20 27  1  0
 24 27  4  0
 26 28  4  0
M  END
$$$$

 Created by Python create_sdf_string function

 29 33  0  0  0  0  0  0  0  0999 V2000
    8.8270   -7.0288   18.4251 C   0  0  0  0  0  0  0  0  0  0  0  0
    9.1576   -4.6236   15.8860 O   0  0  0  0  0  0  0  0  0  0  0  0
    9.1509   -5.9108   17.7177 C   0  0  0  0  0  0  0  0  0  0  0  0
    3.6373   -9.5349   16.0582 N   0  0  0  0  0  0  0  0  0  0  0  0
    9.9275   -4.8001   18.0438 N   0  0  0  0  0  0  0  0  0  0  0  0
    8.5908   -5.7425   16.4412 C   0  0  0  0  0  0  0  0  0  0  0  0
   10.5993   -4.8981   21.6068 C   0  0  0  0  0  0  0  0  0  0  0  0
   10.4258   -3.0106   23.0998 C   0  0  0  0  0  0  0  0  0  0  0  0
   10.2148   -3.4364   25.4200 C   0  0  0  0  0  0  0  0  0  0  0  0
    9.7853   -1.1840   24.4927 C   0  0  0  0  0  0  0  0  0  0  0  0
    5.0276   -8.5227   17.5352 C   0  0  0  0  0  0  0  0  0  0  0  0
    9.8187   -2.0895   25.5800 C   0  0  0  0  0  0  0  0  0  0  0  0
    5.6473   -8.7216   15.3158 C   0  0  0  0  0  0  0  0  0  0  0  0
   10.7581   -3.1233   19.4720 N   0  0  0  0  0  0  0  0  0  0  0  0
    9.9571   -4.0573   16.8866 C   0  0  0  0  0  0  0  0  0  0  0  0
    7.6213   -6.5618   16.0087 C   0  0  0  0  0  0  0  0  0  0  0  0
   10.8583   -2.6527   20.7222 C   0  0  0  0  0  0  0  0  0  0  0  0
   10.6412   -3.5089   21.7936 C   0  0  0  0  0  0  0  0  0  0  0  0
   10.4972   -3.8968   24.1589 C   0  0  0  0  0  0  0  0  0  0  0  0
    5.9260   -8.2736   16.5517 C   0  0  0  0  0  0  0  0  0  0  0  0
    3.8816   -9.1166   17.2493 C   0  0  0  0  0  0  0  0  0  0  0  0
   10.1297   -1.6575   23.2324 C   0  0  0  0  0  0  0  0  0  0  0  0
    9.4684   -1.6929   26.7263 F   0  0  0  0  0  0  0  0  0  0  0  0
    7.7963   -7.7906   17.9837 C   0  0  0  0  0  0  0  0  0  0  0  0
   10.5884   -3.0725   16.7902 O   0  0  0  0  0  0  0  0  0  0  0  0
   10.4323   -5.3494   20.3516 C   0  0  0  0  0  0  0  0  0  0  0  0
    7.1156   -7.5454   16.8218 C   0  0  0  0  0  0  0  0  0  0  0  0
   10.3885   -4.4388   19.2773 C   0  0  0  0  0  0  0  0  0  0  0  0
    4.5160   -9.3822   15.0841 C   0  0  0  0  0  0  0  0  0  0  0  0
  1  3  4  0
  1 24  4  0
  2  6  4  0
  2 15  4  0
  3  5  4  0
  3  6  4  0
  4 21  4  0
  4 29  4  0
  5 15  4  0
  5 28  1  0
  6 16  4  0
  7 18  4  0
  7 26  4  0
  8 18  1  0
  8 19  4  0
  8 22  4  0
  9 12  4  0
  9 19  4  0
 10 12  4  0
 10 22  4  0
 11 20  4  0
 11 21  4  0
 12 23  1  0
 13 20  4  0
 13 29  4  0
 14 17  4  0
 14 28  4  0
 15 25  2  0
 16 27  4  0
 17 18  4  0
 20 27  1  0
 24 27  4  0
 26 28  4  0
M  END
$$$$

 Created by Python create_sdf_string function

 29 33  0  0  0  0  0  0  0  0999 V2000
    8.8270   -7.0288   18.4251 C   0  0  0  0  0  0  0  0  0  0  0  0
    9.1576   -4.6236   15.8860 O   0  0  0  0  0  0  0  0  0  0  0  0
    9.1509   -5.9108   17.7177 C   0  0  0  0  0  0  0  0  0  0  0  0
    3.6373   -9.5349   16.0582 N   0  0  0  0  0  0  0  0  0  0  0  0
    9.9275   -4.8001   18.0438 N   0  0  0  0  0  0  0  0  0  0  0  0
    8.5908   -5.7425   16.4412 C   0  0  0  0  0  0  0  0  0  0  0  0
   10.5993   -4.8981   21.6068 C   0  0  0  0  0  0  0  0  0  0  0  0
   10.4258   -3.0106   23.0998 C   0  0  0  0  0  0  0  0  0  0  0  0
   10.2148   -3.4364   25.4200 C   0  0  0  0  0  0  0  0  0  0  0  0
    9.7853   -1.1840   24.4927 C   0  0  0  0  0  0  0  0  0  0  0  0
    5.0276   -8.5227   17.5352 C   0  0  0  0  0  0  0  0  0  0  0  0
    9.8187   -2.0895   25.5800 C   0  0  0  0  0  0  0  0  0  0  0  0
    5.6473   -8.7216   15.3158 C   0  0  0  0  0  0  0  0  0  0  0  0
   10.7581   -3.1233   19.4720 N   0  0  0  0  0  0  0  0  0  0  0  0
    9.9571   -4.0573   16.8866 C   0  0  0  0  0  0  0  0  0  0  0  0
    7.6213   -6.5618   16.0087 C   0  0  0  0  0  0  0  0  0  0  0  0
   10.8583   -2.6527   20.7222 C   0  0  0  0  0  0  0  0  0  0  0  0
   10.6412   -3.5089   21.7936 C   0  0  0  0  0  0  0  0  0  0  0  0
   10.4972   -3.8968   24.1589 C   0  0  0  0  0  0  0  0  0  0  0  0
    5.9260   -8.2736   16.5517 C   0  0  0  0  0  0  0  0  0  0  0  0
    3.8816   -9.1166   17.2493 C   0  0  0  0  0  0  0  0  0  0  0  0
   10.1297   -1.6575   23.2324 C   0  0  0  0  0  0  0  0  0  0  0  0
    9.4684   -1.6929   26.7263 F   0  0  0  0  0  0  0  0  0  0  0  0
    7.7963   -7.7906   17.9837 C   0  0  0  0  0  0  0  0  0  0  0  0
   10.5884   -3.0725   16.7902 O   0  0  0  0  0  0  0  0  0  0  0  0
   10.4323   -5.3494   20.3516 C   0  0  0  0  0  0  0  0  0  0  0  0
    7.1156   -7.5454   16.8218 C   0  0  0  0  0  0  0  0  0  0  0  0
   10.3885   -4.4388   19.2773 C   0  0  0  0  0  0  0  0  0  0  0  0
    4.5160   -9.3822   15.0841 C   0  0  0  0  0  0  0  0  0  0  0  0
  1  3  4  0
  1 24  4  0
  2  6  4  0
  2 15  4  0
  3  5  4  0
  3  6  4  0
  4 21  4  0
  4 29  4  0
  5 15  4  0
  5 28  1  0
  6 16  4  0
  7 18  4  0
  7 26  4  0
  8 18  1  0
  8 19  4  0
  8 22  4  0
  9 12  4  0
  9 19  4  0
 10 12  4  0
 10 22  4  0
 11 20  4  0
 11 21  4  0
 12 23  1  0
 13 20  4  0
 13 29  4  0
 14 17  4  0
 14 28  4  0
 15 25  2  0
 16 27  4  0
 17 18  4  0
 20 27  1  0
 24 27  4  0
 26 28  4  0
M  END
$$$$

 Created by Python create_sdf_string function

 29 33  0  0  0  0  0  0  0  0999 V2000
    8.8270   -7.0288   18.4251 C   0  0  0  0  0  0  0  0  0  0  0  0
    9.1576   -4.6236   15.8860 O   0  0  0  0  0  0  0  0  0  0  0  0
    9.1509   -5.9108   17.7177 C   0  0  0  0  0  0  0  0  0  0  0  0
    3.6373   -9.5349   16.0582 N   0  0  0  0  0  0  0  0  0  0  0  0
    9.9275   -4.8001   18.0438 N   0  0  0  0  0  0  0  0  0  0  0  0
    8.5908   -5.7425   16.4412 C   0  0  0  0  0  0  0  0  0  0  0  0
   10.5993   -4.8981   21.6068 C   0  0  0  0  0  0  0  0  0  0  0  0
   10.4258   -3.0106   23.0998 C   0  0  0  0  0  0  0  0  0  0  0  0
   10.2148   -3.4364   25.4200 C   0  0  0  0  0  0  0  0  0  0  0  0
    9.7853   -1.1840   24.4927 C   0  0  0  0  0  0  0  0  0  0  0  0
    5.0276   -8.5227   17.5352 C   0  0  0  0  0  0  0  0  0  0  0  0
    9.8187   -2.0895   25.5800 C   0  0  0  0  0  0  0  0  0  0  0  0
    5.6473   -8.7216   15.3158 C   0  0  0  0  0  0  0  0  0  0  0  0
   10.7581   -3.1233   19.4720 N   0  0  0  0  0  0  0  0  0  0  0  0
    9.9571   -4.0573   16.8866 C   0  0  0  0  0  0  0  0  0  0  0  0
    7.6213   -6.5618   16.0087 C   0  0  0  0  0  0  0  0  0  0  0  0
   10.8583   -2.6527   20.7222 C   0  0  0  0  0  0  0  0  0  0  0  0
   10.6412   -3.5089   21.7936 C   0  0  0  0  0  0  0  0  0  0  0  0
   10.4972   -3.8968   24.1589 C   0  0  0  0  0  0  0  0  0  0  0  0
    5.9260   -8.2736   16.5517 C   0  0  0  0  0  0  0  0  0  0  0  0
    3.8816   -9.1166   17.2493 C   0  0  0  0  0  0  0  0  0  0  0  0
   10.1297   -1.6575   23.2324 C   0  0  0  0  0  0  0  0  0  0  0  0
    9.4684   -1.6929   26.7263 F   0  0  0  0  0  0  0  0  0  0  0  0
    7.7963   -7.7906   17.9837 C   0  0  0  0  0  0  0  0  0  0  0  0
   10.5884   -3.0725   16.7902 O   0  0  0  0  0  0  0  0  0  0  0  0
   10.4323   -5.3494   20.3516 C   0  0  0  0  0  0  0  0  0  0  0  0
    7.1156   -7.5454   16.8218 C   0  0  0  0  0  0  0  0  0  0  0  0
   10.3885   -4.4388   19.2773 C   0  0  0  0  0  0  0  0  0  0  0  0
    4.5160   -9.3822   15.0841 C   0  0  0  0  0  0  0  0  0  0  0  0
  1  3  4  0
  1 24  4  0
  2  6  4  0
  2 15  4  0
  3  5  4  0
  3  6  4  0
  4 21  4  0
  4 29  4  0
  5 15  4  0
  5 28  1  0
  6 16  4  0
  7 18  4  0
  7 26  4  0
  8 18  1  0
  8 19  4  0
  8 22  4  0
  9 12  4  0
  9 19  4  0
 10 12  4  0
 10 22  4  0
 11 20  4  0
 11 21  4  0
 12 23  1  0
 13 20  4  0
 13 29  4  0
 14 17  4  0
 14 28  4  0
 15 25  2  0
 16 27  4  0
 17 18  4  0
 20 27  1  0
 24 27  4  0
 26 28  4  0
M  END
$$$$

 Created by Python create_sdf_string function

 29 33  0  0  0  0  0  0  0  0999 V2000
    8.8270   -7.0288   18.4251 C   0  0  0  0  0  0  0  0  0  0  0  0
    9.1576   -4.6236   15.8860 O   0  0  0  0  0  0  0  0  0  0  0  0
    9.1509   -5.9108   17.7177 C   0  0  0  0  0  0  0  0  0  0  0  0
    3.6373   -9.5349   16.0582 N   0  0  0  0  0  0  0  0  0  0  0  0
    9.9275   -4.8001   18.0438 N   0  0  0  0  0  0  0  0  0  0  0  0
    8.5908   -5.7425   16.4412 C   0  0  0  0  0  0  0  0  0  0  0  0
   10.5993   -4.8981   21.6068 C   0  0  0  0  0  0  0  0  0  0  0  0
   10.4258   -3.0106   23.0998 C   0  0  0  0  0  0  0  0  0  0  0  0
   10.2148   -3.4364   25.4200 C   0  0  0  0  0  0  0  0  0  0  0  0
    9.7853   -1.1840   24.4927 C   0  0  0  0  0  0  0  0  0  0  0  0
    5.0276   -8.5227   17.5352 C   0  0  0  0  0  0  0  0  0  0  0  0
    9.8187   -2.0895   25.5800 C   0  0  0  0  0  0  0  0  0  0  0  0
    5.6473   -8.7216   15.3158 C   0  0  0  0  0  0  0  0  0  0  0  0
   10.7581   -3.1233   19.4720 N   0  0  0  0  0  0  0  0  0  0  0  0
    9.9571   -4.0573   16.8866 C   0  0  0  0  0  0  0  0  0  0  0  0
    7.6213   -6.5618   16.0087 C   0  0  0  0  0  0  0  0  0  0  0  0
   10.8583   -2.6527   20.7222 C   0  0  0  0  0  0  0  0  0  0  0  0
   10.6412   -3.5089   21.7936 C   0  0  0  0  0  0  0  0  0  0  0  0
   10.4972   -3.8968   24.1589 C   0  0  0  0  0  0  0  0  0  0  0  0
    5.9260   -8.2736   16.5517 C   0  0  0  0  0  0  0  0  0  0  0  0
    3.8816   -9.1166   17.2493 C   0  0  0  0  0  0  0  0  0  0  0  0
   10.1297   -1.6575   23.2324 C   0  0  0  0  0  0  0  0  0  0  0  0
    9.4684   -1.6929   26.7263 F   0  0  0  0  0  0  0  0  0  0  0  0
    7.7963   -7.7906   17.9837 C   0  0  0  0  0  0  0  0  0  0  0  0
   10.5884   -3.0725   16.7902 O   0  0  0  0  0  0  0  0  0  0  0  0
   10.4323   -5.3494   20.3516 C   0  0  0  0  0  0  0  0  0  0  0  0
    7.1156   -7.5454   16.8218 C   0  0  0  0  0  0  0  0  0  0  0  0
   10.3885   -4.4388   19.2773 C   0  0  0  0  0  0  0  0  0  0  0  0
    4.5160   -9.3822   15.0841 C   0  0  0  0  0  0  0  0  0  0  0  0
  1  3  4  0
  1 24  4  0
  2  6  4  0
  2 15  4  0
  3  5  4  0
  3  6  4  0
  4 21  4  0
  4 29  4  0
  5 15  4  0
  5 28  1  0
  6 16  4  0
  7 18  4  0
  7 26  4  0
  8 18  1  0
  8 19  4  0
  8 22  4  0
  9 12  4  0
  9 19  4  0
 10 12  4  0
 10 22  4  0
 11 20  4  0
 11 21  4  0
 12 23  1  0
 13 20  4  0
 13 29  4  0
 14 17  4  0
 14 28  4  0
 15 25  2  0
 16 27  4  0
 17 18  4  0
 20 27  1  0
 24 27  4  0
 26 28  4  0
M  END
$$$$

 Created by Python create_sdf_string function

 29 33  0  0  0  0  0  0  0  0999 V2000
    8.8270   -7.0288   18.4251 C   0  0  0  0  0  0  0  0  0  0  0  0
    9.1576   -4.6236   15.8860 O   0  0  0  0  0  0  0  0  0  0  0  0
    9.1509   -5.9108   17.7177 C   0  0  0  0  0  0  0  0  0  0  0  0
    3.6373   -9.5349   16.0582 N   0  0  0  0  0  0  0  0  0  0  0  0
    9.9275   -4.8001   18.0438 N   0  0  0  0  0  0  0  0  0  0  0  0
    8.5908   -5.7425   16.4412 C   0  0  0  0  0  0  0  0  0  0  0  0
   10.5993   -4.8981   21.6068 C   0  0  0  0  0  0  0  0  0  0  0  0
   10.4258   -3.0106   23.0998 C   0  0  0  0  0  0  0  0  0  0  0  0
   10.2148   -3.4364   25.4200 C   0  0  0  0  0  0  0  0  0  0  0  0
    9.7853   -1.1840   24.4927 C   0  0  0  0  0  0  0  0  0  0  0  0
    5.0276   -8.5227   17.5352 C   0  0  0  0  0  0  0  0  0  0  0  0
    9.8187   -2.0895   25.5800 C   0  0  0  0  0  0  0  0  0  0  0  0
    5.6473   -8.7216   15.3158 C   0  0  0  0  0  0  0  0  0  0  0  0
   10.7581   -3.1233   19.4720 N   0  0  0  0  0  0  0  0  0  0  0  0
    9.9571   -4.0573   16.8866 C   0  0  0  0  0  0  0  0  0  0  0  0
    7.6213   -6.5618   16.0087 C   0  0  0  0  0  0  0  0  0  0  0  0
   10.8583   -2.6527   20.7222 C   0  0  0  0  0  0  0  0  0  0  0  0
   10.6412   -3.5089   21.7936 C   0  0  0  0  0  0  0  0  0  0  0  0
   10.4972   -3.8968   24.1589 C   0  0  0  0  0  0  0  0  0  0  0  0
    5.9260   -8.2736   16.5517 C   0  0  0  0  0  0  0  0  0  0  0  0
    3.8816   -9.1166   17.2493 C   0  0  0  0  0  0  0  0  0  0  0  0
   10.1297   -1.6575   23.2324 C   0  0  0  0  0  0  0  0  0  0  0  0
    9.4684   -1.6929   26.7263 F   0  0  0  0  0  0  0  0  0  0  0  0
    7.7963   -7.7906   17.9837 C   0  0  0  0  0  0  0  0  0  0  0  0
   10.5884   -3.0725   16.7902 O   0  0  0  0  0  0  0  0  0  0  0  0
   10.4323   -5.3494   20.3516 C   0  0  0  0  0  0  0  0  0  0  0  0
    7.1156   -7.5454   16.8218 C   0  0  0  0  0  0  0  0  0  0  0  0
   10.3885   -4.4388   19.2773 C   0  0  0  0  0  0  0  0  0  0  0  0
    4.5160   -9.3822   15.0841 C   0  0  0  0  0  0  0  0  0  0  0  0
  1  3  4  0
  1 24  4  0
  2  6  4  0
  2 15  4  0
  3  5  4  0
  3  6  4  0
  4 21  4  0
  4 29  4  0
  5 15  4  0
  5 28  1  0
  6 16  4  0
  7 18  4  0
  7 26  4  0
  8 18  1  0
  8 19  4  0
  8 22  4  0
  9 12  4  0
  9 19  4  0
 10 12  4  0
 10 22  4  0
 11 20  4  0
 11 21  4  0
 12 23  1  0
 13 20  4  0
 13 29  4  0
 14 17  4  0
 14 28  4  0
 15 25  2  0
 16 27  4  0
 17 18  4  0
 20 27  1  0
 24 27  4  0
 26 28  4  0
M  END
$$$$

 Created by Python create_sdf_string function

 29 33  0  0  0  0  0  0  0  0999 V2000
    8.8270   -7.0288   18.4251 C   0  0  0  0  0  0  0  0  0  0  0  0
    9.1576   -4.6236   15.8860 O   0  0  0  0  0  0  0  0  0  0  0  0
    9.1509   -5.9108   17.7177 C   0  0  0  0  0  0  0  0  0  0  0  0
    3.6373   -9.5349   16.0582 N   0  0  0  0  0  0  0  0  0  0  0  0
    9.9275   -4.8001   18.0438 N   0  0  0  0  0  0  0  0  0  0  0  0
    8.5908   -5.7425   16.4412 C   0  0  0  0  0  0  0  0  0  0  0  0
   10.5993   -4.8981   21.6068 C   0  0  0  0  0  0  0  0  0  0  0  0
   10.4258   -3.0106   23.0998 C   0  0  0  0  0  0  0  0  0  0  0  0
   10.2148   -3.4364   25.4200 C   0  0  0  0  0  0  0  0  0  0  0  0
    9.7853   -1.1840   24.4927 C   0  0  0  0  0  0  0  0  0  0  0  0
    5.0276   -8.5227   17.5352 C   0  0  0  0  0  0  0  0  0  0  0  0
    9.8187   -2.0895   25.5800 C   0  0  0  0  0  0  0  0  0  0  0  0
    5.6473   -8.7216   15.3158 C   0  0  0  0  0  0  0  0  0  0  0  0
   10.7581   -3.1233   19.4720 N   0  0  0  0  0  0  0  0  0  0  0  0
    9.9571   -4.0573   16.8866 C   0  0  0  0  0  0  0  0  0  0  0  0
    7.6213   -6.5618   16.0087 C   0  0  0  0  0  0  0  0  0  0  0  0
   10.8583   -2.6527   20.7222 C   0  0  0  0  0  0  0  0  0  0  0  0
   10.6412   -3.5089   21.7936 C   0  0  0  0  0  0  0  0  0  0  0  0
   10.4972   -3.8968   24.1589 C   0  0  0  0  0  0  0  0  0  0  0  0
    5.9260   -8.2736   16.5517 C   0  0  0  0  0  0  0  0  0  0  0  0
    3.8816   -9.1166   17.2493 C   0  0  0  0  0  0  0  0  0  0  0  0
   10.1297   -1.6575   23.2324 C   0  0  0  0  0  0  0  0  0  0  0  0
    9.4684   -1.6929   26.7263 F   0  0  0  0  0  0  0  0  0  0  0  0
    7.7963   -7.7906   17.9837 C   0  0  0  0  0  0  0  0  0  0  0  0
   10.5884   -3.0725   16.7902 O   0  0  0  0  0  0  0  0  0  0  0  0
   10.4323   -5.3494   20.3516 C   0  0  0  0  0  0  0  0  0  0  0  0
    7.1156   -7.5454   16.8218 C   0  0  0  0  0  0  0  0  0  0  0  0
   10.3885   -4.4388   19.2773 C   0  0  0  0  0  0  0  0  0  0  0  0
    4.5160   -9.3822   15.0841 C   0  0  0  0  0  0  0  0  0  0  0  0
  1  3  4  0
  1 24  4  0
  2  6  4  0
  2 15  4  0
  3  5  4  0
  3  6  4  0
  4 21  4  0
  4 29  4  0
  5 15  4  0
  5 28  1  0
  6 16  4  0
  7 18  4  0
  7 26  4  0
  8 18  1  0
  8 19  4  0
  8 22  4  0
  9 12  4  0
  9 19  4  0
 10 12  4  0
 10 22  4  0
 11 20  4  0
 11 21  4  0
 12 23  1  0
 13 20  4  0
 13 29  4  0
 14 17  4  0
 14 28  4  0
 15 25  2  0
 16 27  4  0
 17 18  4  0
 20 27  1  0
 24 27  4  0
 26 28  4  0
M  END
$$$$

 Created by Python create_sdf_string function

 29 33  0  0  0  0  0  0  0  0999 V2000
    8.8270   -7.0288   18.4251 C   0  0  0  0  0  0  0  0  0  0  0  0
    9.1576   -4.6236   15.8860 O   0  0  0  0  0  0  0  0  0  0  0  0
    9.1509   -5.9108   17.7177 C   0  0  0  0  0  0  0  0  0  0  0  0
    3.6373   -9.5349   16.0582 N   0  0  0  0  0  0  0  0  0  0  0  0
    9.9275   -4.8001   18.0438 N   0  0  0  0  0  0  0  0  0  0  0  0
    8.5908   -5.7425   16.4412 C   0  0  0  0  0  0  0  0  0  0  0  0
   10.5993   -4.8981   21.6068 C   0  0  0  0  0  0  0  0  0  0  0  0
   10.4258   -3.0106   23.0998 C   0  0  0  0  0  0  0  0  0  0  0  0
   10.2148   -3.4364   25.4200 C   0  0  0  0  0  0  0  0  0  0  0  0
    9.7853   -1.1840   24.4927 C   0  0  0  0  0  0  0  0  0  0  0  0
    5.0276   -8.5227   17.5352 C   0  0  0  0  0  0  0  0  0  0  0  0
    9.8187   -2.0895   25.5800 C   0  0  0  0  0  0  0  0  0  0  0  0
    5.6473   -8.7216   15.3158 C   0  0  0  0  0  0  0  0  0  0  0  0
   10.7581   -3.1233   19.4720 N   0  0  0  0  0  0  0  0  0  0  0  0
    9.9571   -4.0573   16.8866 C   0  0  0  0  0  0  0  0  0  0  0  0
    7.6213   -6.5618   16.0087 C   0  0  0  0  0  0  0  0  0  0  0  0
   10.8583   -2.6527   20.7222 C   0  0  0  0  0  0  0  0  0  0  0  0
   10.6412   -3.5089   21.7936 C   0  0  0  0  0  0  0  0  0  0  0  0
   10.4972   -3.8968   24.1589 C   0  0  0  0  0  0  0  0  0  0  0  0
    5.9260   -8.2736   16.5517 C   0  0  0  0  0  0  0  0  0  0  0  0
    3.8816   -9.1166   17.2493 C   0  0  0  0  0  0  0  0  0  0  0  0
   10.1297   -1.6575   23.2324 C   0  0  0  0  0  0  0  0  0  0  0  0
    9.4684   -1.6929   26.7263 F   0  0  0  0  0  0  0  0  0  0  0  0
    7.7963   -7.7906   17.9837 C   0  0  0  0  0  0  0  0  0  0  0  0
   10.5884   -3.0725   16.7902 O   0  0  0  0  0  0  0  0  0  0  0  0
   10.4323   -5.3494   20.3516 C   0  0  0  0  0  0  0  0  0  0  0  0
    7.1156   -7.5454   16.8218 C   0  0  0  0  0  0  0  0  0  0  0  0
   10.3885   -4.4388   19.2773 C   0  0  0  0  0  0  0  0  0  0  0  0
    4.5160   -9.3822   15.0841 C   0  0  0  0  0  0  0  0  0  0  0  0
  1  3  4  0
  1 24  4  0
  2  6  4  0
  2 15  4  0
  3  5  4  0
  3  6  4  0
  4 21  4  0
  4 29  4  0
  5 15  4  0
  5 28  1  0
  6 16  4  0
  7 18  4  0
  7 26  4  0
  8 18  1  0
  8 19  4  0
  8 22  4  0
  9 12  4  0
  9 19  4  0
 10 12  4  0
 10 22  4  0
 11 20  4  0
 11 21  4  0
 12 23  1  0
 13 20  4  0
 13 29  4  0
 14 17  4  0
 14 28  4  0
 15 25  2  0
 16 27  4  0
 17 18  4  0
 20 27  1  0
 24 27  4  0
 26 28  4  0
M  END
$$$$

 Created by Python create_sdf_string function

 29 33  0  0  0  0  0  0  0  0999 V2000
    8.8270   -7.0288   18.4251 C   0  0  0  0  0  0  0  0  0  0  0  0
    9.1576   -4.6236   15.8860 O   0  0  0  0  0  0  0  0  0  0  0  0
    9.1509   -5.9108   17.7177 C   0  0  0  0  0  0  0  0  0  0  0  0
    3.6373   -9.5349   16.0582 N   0  0  0  0  0  0  0  0  0  0  0  0
    9.9275   -4.8001   18.0438 N   0  0  0  0  0  0  0  0  0  0  0  0
    8.5908   -5.7425   16.4412 C   0  0  0  0  0  0  0  0  0  0  0  0
   10.5993   -4.8981   21.6068 C   0  0  0  0  0  0  0  0  0  0  0  0
   10.4258   -3.0106   23.0998 C   0  0  0  0  0  0  0  0  0  0  0  0
   10.2148   -3.4364   25.4200 C   0  0  0  0  0  0  0  0  0  0  0  0
    9.7853   -1.1840   24.4927 C   0  0  0  0  0  0  0  0  0  0  0  0
    5.0276   -8.5227   17.5352 C   0  0  0  0  0  0  0  0  0  0  0  0
    9.8187   -2.0895   25.5800 C   0  0  0  0  0  0  0  0  0  0  0  0
    5.6473   -8.7216   15.3158 C   0  0  0  0  0  0  0  0  0  0  0  0
   10.7581   -3.1233   19.4720 N   0  0  0  0  0  0  0  0  0  0  0  0
    9.9571   -4.0573   16.8866 C   0  0  0  0  0  0  0  0  0  0  0  0
    7.6213   -6.5618   16.0087 C   0  0  0  0  0  0  0  0  0  0  0  0
   10.8583   -2.6527   20.7222 C   0  0  0  0  0  0  0  0  0  0  0  0
   10.6412   -3.5089   21.7936 C   0  0  0  0  0  0  0  0  0  0  0  0
   10.4972   -3.8968   24.1589 C   0  0  0  0  0  0  0  0  0  0  0  0
    5.9260   -8.2736   16.5517 C   0  0  0  0  0  0  0  0  0  0  0  0
    3.8816   -9.1166   17.2493 C   0  0  0  0  0  0  0  0  0  0  0  0
   10.1297   -1.6575   23.2324 C   0  0  0  0  0  0  0  0  0  0  0  0
    9.4684   -1.6929   26.7263 F   0  0  0  0  0  0  0  0  0  0  0  0
    7.7963   -7.7906   17.9837 C   0  0  0  0  0  0  0  0  0  0  0  0
   10.5884   -3.0725   16.7902 O   0  0  0  0  0  0  0  0  0  0  0  0
   10.4323   -5.3494   20.3516 C   0  0  0  0  0  0  0  0  0  0  0  0
    7.1156   -7.5454   16.8218 C   0  0  0  0  0  0  0  0  0  0  0  0
   10.3885   -4.4388   19.2773 C   0  0  0  0  0  0  0  0  0  0  0  0
    4.5160   -9.3822   15.0841 C   0  0  0  0  0  0  0  0  0  0  0  0
  1  3  4  0
  1 24  4  0
  2  6  4  0
  2 15  4  0
  3  5  4  0
  3  6  4  0
  4 21  4  0
  4 29  4  0
  5 15  4  0
  5 28  1  0
  6 16  4  0
  7 18  4  0
  7 26  4  0
  8 18  1  0
  8 19  4  0
  8 22  4  0
  9 12  4  0
  9 19  4  0
 10 12  4  0
 10 22  4  0
 11 20  4  0
 11 21  4  0
 12 23  1  0
 13 20  4  0
 13 29  4  0
 14 17  4  0
 14 28  4  0
 15 25  2  0
 16 27  4  0
 17 18  4  0
 20 27  1  0
 24 27  4  0
 26 28  4  0
M  END
$$$$

 Created by Python create_sdf_string function

 29 33  0  0  0  0  0  0  0  0999 V2000
    8.8270   -7.0288   18.4251 C   0  0  0  0  0  0  0  0  0  0  0  0
    9.1576   -4.6236   15.8860 O   0  0  0  0  0  0  0  0  0  0  0  0
    9.1509   -5.9108   17.7177 C   0  0  0  0  0  0  0  0  0  0  0  0
    3.6373   -9.5349   16.0582 N   0  0  0  0  0  0  0  0  0  0  0  0
    9.9275   -4.8001   18.0438 N   0  0  0  0  0  0  0  0  0  0  0  0
    8.5908   -5.7425   16.4412 C   0  0  0  0  0  0  0  0  0  0  0  0
   10.5993   -4.8981   21.6068 C   0  0  0  0  0  0  0  0  0  0  0  0
   10.4258   -3.0106   23.0998 C   0  0  0  0  0  0  0  0  0  0  0  0
   10.2148   -3.4364   25.4200 C   0  0  0  0  0  0  0  0  0  0  0  0
    9.7853   -1.1840   24.4927 C   0  0  0  0  0  0  0  0  0  0  0  0
    5.0276   -8.5227   17.5352 C   0  0  0  0  0  0  0  0  0  0  0  0
    9.8187   -2.0895   25.5800 C   0  0  0  0  0  0  0  0  0  0  0  0
    5.6473   -8.7216   15.3158 C   0  0  0  0  0  0  0  0  0  0  0  0
   10.7581   -3.1233   19.4720 N   0  0  0  0  0  0  0  0  0  0  0  0
    9.9571   -4.0573   16.8866 C   0  0  0  0  0  0  0  0  0  0  0  0
    7.6213   -6.5618   16.0087 C   0  0  0  0  0  0  0  0  0  0  0  0
   10.8583   -2.6527   20.7222 C   0  0  0  0  0  0  0  0  0  0  0  0
   10.6412   -3.5089   21.7936 C   0  0  0  0  0  0  0  0  0  0  0  0
   10.4972   -3.8968   24.1589 C   0  0  0  0  0  0  0  0  0  0  0  0
    5.9260   -8.2736   16.5517 C   0  0  0  0  0  0  0  0  0  0  0  0
    3.8816   -9.1166   17.2493 C   0  0  0  0  0  0  0  0  0  0  0  0
   10.1297   -1.6575   23.2324 C   0  0  0  0  0  0  0  0  0  0  0  0
    9.4684   -1.6929   26.7263 F   0  0  0  0  0  0  0  0  0  0  0  0
    7.7963   -7.7906   17.9837 C   0  0  0  0  0  0  0  0  0  0  0  0
   10.5884   -3.0725   16.7902 O   0  0  0  0  0  0  0  0  0  0  0  0
   10.4323   -5.3494   20.3516 C   0  0  0  0  0  0  0  0  0  0  0  0
    7.1156   -7.5454   16.8218 C   0  0  0  0  0  0  0  0  0  0  0  0
   10.3885   -4.4388   19.2773 C   0  0  0  0  0  0  0  0  0  0  0  0
    4.5160   -9.3822   15.0841 C   0  0  0  0  0  0  0  0  0  0  0  0
  1  3  4  0
  1 24  4  0
  2  6  4  0
  2 15  4  0
  3  5  4  0
  3  6  4  0
  4 21  4  0
  4 29  4  0
  5 15  4  0
  5 28  1  0
  6 16  4  0
  7 18  4  0
  7 26  4  0
  8 18  1  0
  8 19  4  0
  8 22  4  0
  9 12  4  0
  9 19  4  0
 10 12  4  0
 10 22  4  0
 11 20  4  0
 11 21  4  0
 12 23  1  0
 13 20  4  0
 13 29  4  0
 14 17  4  0
 14 28  4  0
 15 25  2  0
 16 27  4  0
 17 18  4  0
 20 27  1  0
 24 27  4  0
 26 28  4  0
M  END
$$$$

 Created by Python create_sdf_string function

 29 33  0  0  0  0  0  0  0  0999 V2000
    8.8270   -7.0288   18.4251 C   0  0  0  0  0  0  0  0  0  0  0  0
    9.1576   -4.6236   15.8860 O   0  0  0  0  0  0  0  0  0  0  0  0
    9.1509   -5.9108   17.7177 C   0  0  0  0  0  0  0  0  0  0  0  0
    3.6373   -9.5349   16.0582 N   0  0  0  0  0  0  0  0  0  0  0  0
    9.9275   -4.8001   18.0438 N   0  0  0  0  0  0  0  0  0  0  0  0
    8.5908   -5.7425   16.4412 C   0  0  0  0  0  0  0  0  0  0  0  0
   10.5993   -4.8981   21.6068 C   0  0  0  0  0  0  0  0  0  0  0  0
   10.4258   -3.0106   23.0998 C   0  0  0  0  0  0  0  0  0  0  0  0
   10.2148   -3.4364   25.4200 C   0  0  0  0  0  0  0  0  0  0  0  0
    9.7853   -1.1840   24.4927 C   0  0  0  0  0  0  0  0  0  0  0  0
    5.0276   -8.5227   17.5352 C   0  0  0  0  0  0  0  0  0  0  0  0
    9.8187   -2.0895   25.5800 C   0  0  0  0  0  0  0  0  0  0  0  0
    5.6473   -8.7216   15.3158 C   0  0  0  0  0  0  0  0  0  0  0  0
   10.7581   -3.1233   19.4720 N   0  0  0  0  0  0  0  0  0  0  0  0
    9.9571   -4.0573   16.8866 C   0  0  0  0  0  0  0  0  0  0  0  0
    7.6213   -6.5618   16.0087 C   0  0  0  0  0  0  0  0  0  0  0  0
   10.8583   -2.6527   20.7222 C   0  0  0  0  0  0  0  0  0  0  0  0
   10.6412   -3.5089   21.7936 C   0  0  0  0  0  0  0  0  0  0  0  0
   10.4972   -3.8968   24.1589 C   0  0  0  0  0  0  0  0  0  0  0  0
    5.9260   -8.2736   16.5517 C   0  0  0  0  0  0  0  0  0  0  0  0
    3.8816   -9.1166   17.2493 C   0  0  0  0  0  0  0  0  0  0  0  0
   10.1297   -1.6575   23.2324 C   0  0  0  0  0  0  0  0  0  0  0  0
    9.4684   -1.6929   26.7263 F   0  0  0  0  0  0  0  0  0  0  0  0
    7.7963   -7.7906   17.9837 C   0  0  0  0  0  0  0  0  0  0  0  0
   10.5884   -3.0725   16.7902 O   0  0  0  0  0  0  0  0  0  0  0  0
   10.4323   -5.3494   20.3516 C   0  0  0  0  0  0  0  0  0  0  0  0
    7.1156   -7.5454   16.8218 C   0  0  0  0  0  0  0  0  0  0  0  0
   10.3885   -4.4388   19.2773 C   0  0  0  0  0  0  0  0  0  0  0  0
    4.5160   -9.3822   15.0841 C   0  0  0  0  0  0  0  0  0  0  0  0
  1  3  4  0
  1 24  4  0
  2  6  4  0
  2 15  4  0
  3  5  4  0
  3  6  4  0
  4 21  4  0
  4 29  4  0
  5 15  4  0
  5 28  1  0
  6 16  4  0
  7 18  4  0
  7 26  4  0
  8 18  1  0
  8 19  4  0
  8 22  4  0
  9 12  4  0
  9 19  4  0
 10 12  4  0
 10 22  4  0
 11 20  4  0
 11 21  4  0
 12 23  1  0
 13 20  4  0
 13 29  4  0
 14 17  4  0
 14 28  4  0
 15 25  2  0
 16 27  4  0
 17 18  4  0
 20 27  1  0
 24 27  4  0
 26 28  4  0
M  END
$$$$

 Created by Python create_sdf_string function

 29 33  0  0  0  0  0  0  0  0999 V2000
    8.8270   -7.0288   18.4251 C   0  0  0  0  0  0  0  0  0  0  0  0
    9.1576   -4.6236   15.8860 O   0  0  0  0  0  0  0  0  0  0  0  0
    9.1509   -5.9108   17.7177 C   0  0  0  0  0  0  0  0  0  0  0  0
    3.6373   -9.5349   16.0582 N   0  0  0  0  0  0  0  0  0  0  0  0
    9.9275   -4.8001   18.0438 N   0  0  0  0  0  0  0  0  0  0  0  0
    8.5908   -5.7425   16.4412 C   0  0  0  0  0  0  0  0  0  0  0  0
   10.5993   -4.8981   21.6068 C   0  0  0  0  0  0  0  0  0  0  0  0
   10.4258   -3.0106   23.0998 C   0  0  0  0  0  0  0  0  0  0  0  0
   10.2148   -3.4364   25.4200 C   0  0  0  0  0  0  0  0  0  0  0  0
    9.7853   -1.1840   24.4927 C   0  0  0  0  0  0  0  0  0  0  0  0
    5.0276   -8.5227   17.5352 C   0  0  0  0  0  0  0  0  0  0  0  0
    9.8187   -2.0895   25.5800 C   0  0  0  0  0  0  0  0  0  0  0  0
    5.6473   -8.7216   15.3158 C   0  0  0  0  0  0  0  0  0  0  0  0
   10.7581   -3.1233   19.4720 N   0  0  0  0  0  0  0  0  0  0  0  0
    9.9571   -4.0573   16.8866 C   0  0  0  0  0  0  0  0  0  0  0  0
    7.6213   -6.5618   16.0087 C   0  0  0  0  0  0  0  0  0  0  0  0
   10.8583   -2.6527   20.7222 C   0  0  0  0  0  0  0  0  0  0  0  0
   10.6412   -3.5089   21.7936 C   0  0  0  0  0  0  0  0  0  0  0  0
   10.4972   -3.8968   24.1589 C   0  0  0  0  0  0  0  0  0  0  0  0
    5.9260   -8.2736   16.5517 C   0  0  0  0  0  0  0  0  0  0  0  0
    3.8816   -9.1166   17.2493 C   0  0  0  0  0  0  0  0  0  0  0  0
   10.1297   -1.6575   23.2324 C   0  0  0  0  0  0  0  0  0  0  0  0
    9.4684   -1.6929   26.7263 F   0  0  0  0  0  0  0  0  0  0  0  0
    7.7963   -7.7906   17.9837 C   0  0  0  0  0  0  0  0  0  0  0  0
   10.5884   -3.0725   16.7902 O   0  0  0  0  0  0  0  0  0  0  0  0
   10.4323   -5.3494   20.3516 C   0  0  0  0  0  0  0  0  0  0  0  0
    7.1156   -7.5454   16.8218 C   0  0  0  0  0  0  0  0  0  0  0  0
   10.3885   -4.4388   19.2773 C   0  0  0  0  0  0  0  0  0  0  0  0
    4.5160   -9.3822   15.0841 C   0  0  0  0  0  0  0  0  0  0  0  0
  1  3  4  0
  1 24  4  0
  2  6  4  0
  2 15  4  0
  3  5  4  0
  3  6  4  0
  4 21  4  0
  4 29  4  0
  5 15  4  0
  5 28  1  0
  6 16  4  0
  7 18  4  0
  7 26  4  0
  8 18  1  0
  8 19  4  0
  8 22  4  0
  9 12  4  0
  9 19  4  0
 10 12  4  0
 10 22  4  0
 11 20  4  0
 11 21  4  0
 12 23  1  0
 13 20  4  0
 13 29  4  0
 14 17  4  0
 14 28  4  0
 15 25  2  0
 16 27  4  0
 17 18  4  0
 20 27  1  0
 24 27  4  0
 26 28  4  0
M  END
$$$$

 Created by Python create_sdf_string function

 29 33  0  0  0  0  0  0  0  0999 V2000
    8.8270   -7.0288   18.4251 C   0  0  0  0  0  0  0  0  0  0  0  0
    9.1576   -4.6236   15.8860 O   0  0  0  0  0  0  0  0  0  0  0  0
    9.1509   -5.9108   17.7177 C   0  0  0  0  0  0  0  0  0  0  0  0
    3.6373   -9.5349   16.0582 N   0  0  0  0  0  0  0  0  0  0  0  0
    9.9275   -4.8001   18.0438 N   0  0  0  0  0  0  0  0  0  0  0  0
    8.5908   -5.7425   16.4412 C   0  0  0  0  0  0  0  0  0  0  0  0
   10.5993   -4.8981   21.6068 C   0  0  0  0  0  0  0  0  0  0  0  0
   10.4258   -3.0106   23.0998 C   0  0  0  0  0  0  0  0  0  0  0  0
   10.2148   -3.4364   25.4200 C   0  0  0  0  0  0  0  0  0  0  0  0
    9.7853   -1.1840   24.4927 C   0  0  0  0  0  0  0  0  0  0  0  0
    5.0276   -8.5227   17.5352 C   0  0  0  0  0  0  0  0  0  0  0  0
    9.8187   -2.0895   25.5800 C   0  0  0  0  0  0  0  0  0  0  0  0
    5.6473   -8.7216   15.3158 C   0  0  0  0  0  0  0  0  0  0  0  0
   10.7581   -3.1233   19.4720 N   0  0  0  0  0  0  0  0  0  0  0  0
    9.9571   -4.0573   16.8866 C   0  0  0  0  0  0  0  0  0  0  0  0
    7.6213   -6.5618   16.0087 C   0  0  0  0  0  0  0  0  0  0  0  0
   10.8583   -2.6527   20.7222 C   0  0  0  0  0  0  0  0  0  0  0  0
   10.6412   -3.5089   21.7936 C   0  0  0  0  0  0  0  0  0  0  0  0
   10.4972   -3.8968   24.1589 C   0  0  0  0  0  0  0  0  0  0  0  0
    5.9260   -8.2736   16.5517 C   0  0  0  0  0  0  0  0  0  0  0  0
    3.8816   -9.1166   17.2493 C   0  0  0  0  0  0  0  0  0  0  0  0
   10.1297   -1.6575   23.2324 C   0  0  0  0  0  0  0  0  0  0  0  0
    9.4684   -1.6929   26.7263 F   0  0  0  0  0  0  0  0  0  0  0  0
    7.7963   -7.7906   17.9837 C   0  0  0  0  0  0  0  0  0  0  0  0
   10.5884   -3.0725   16.7902 O   0  0  0  0  0  0  0  0  0  0  0  0
   10.4323   -5.3494   20.3516 C   0  0  0  0  0  0  0  0  0  0  0  0
    7.1156   -7.5454   16.8218 C   0  0  0  0  0  0  0  0  0  0  0  0
   10.3885   -4.4388   19.2773 C   0  0  0  0  0  0  0  0  0  0  0  0
    4.5160   -9.3822   15.0841 C   0  0  0  0  0  0  0  0  0  0  0  0
  1  3  4  0
  1 24  4  0
  2  6  4  0
  2 15  4  0
  3  5  4  0
  3  6  4  0
  4 21  4  0
  4 29  4  0
  5 15  4  0
  5 28  1  0
  6 16  4  0
  7 18  4  0
  7 26  4  0
  8 18  1  0
  8 19  4  0
  8 22  4  0
  9 12  4  0
  9 19  4  0
 10 12  4  0
 10 22  4  0
 11 20  4  0
 11 21  4  0
 12 23  1  0
 13 20  4  0
 13 29  4  0
 14 17  4  0
 14 28  4  0
 15 25  2  0
 16 27  4  0
 17 18  4  0
 20 27  1  0
 24 27  4  0
 26 28  4  0
M  END
$$$$

 Created by Python create_sdf_string function

 29 33  0  0  0  0  0  0  0  0999 V2000
    8.8270   -7.0288   18.4251 C   0  0  0  0  0  0  0  0  0  0  0  0
    9.1576   -4.6236   15.8860 O   0  0  0  0  0  0  0  0  0  0  0  0
    9.1509   -5.9108   17.7177 C   0  0  0  0  0  0  0  0  0  0  0  0
    3.6373   -9.5349   16.0582 N   0  0  0  0  0  0  0  0  0  0  0  0
    9.9275   -4.8001   18.0438 N   0  0  0  0  0  0  0  0  0  0  0  0
    8.5908   -5.7425   16.4412 C   0  0  0  0  0  0  0  0  0  0  0  0
   10.5993   -4.8981   21.6068 C   0  0  0  0  0  0  0  0  0  0  0  0
   10.4258   -3.0106   23.0998 C   0  0  0  0  0  0  0  0  0  0  0  0
   10.2148   -3.4364   25.4200 C   0  0  0  0  0  0  0  0  0  0  0  0
    9.7853   -1.1840   24.4927 C   0  0  0  0  0  0  0  0  0  0  0  0
    5.0276   -8.5227   17.5352 C   0  0  0  0  0  0  0  0  0  0  0  0
    9.8187   -2.0895   25.5800 C   0  0  0  0  0  0  0  0  0  0  0  0
    5.6473   -8.7216   15.3158 C   0  0  0  0  0  0  0  0  0  0  0  0
   10.7581   -3.1233   19.4720 N   0  0  0  0  0  0  0  0  0  0  0  0
    9.9571   -4.0573   16.8866 C   0  0  0  0  0  0  0  0  0  0  0  0
    7.6213   -6.5618   16.0087 C   0  0  0  0  0  0  0  0  0  0  0  0
   10.8583   -2.6527   20.7222 C   0  0  0  0  0  0  0  0  0  0  0  0
   10.6412   -3.5089   21.7936 C   0  0  0  0  0  0  0  0  0  0  0  0
   10.4972   -3.8968   24.1589 C   0  0  0  0  0  0  0  0  0  0  0  0
    5.9260   -8.2736   16.5517 C   0  0  0  0  0  0  0  0  0  0  0  0
    3.8816   -9.1166   17.2493 C   0  0  0  0  0  0  0  0  0  0  0  0
   10.1297   -1.6575   23.2324 C   0  0  0  0  0  0  0  0  0  0  0  0
    9.4684   -1.6929   26.7263 F   0  0  0  0  0  0  0  0  0  0  0  0
    7.7963   -7.7906   17.9837 C   0  0  0  0  0  0  0  0  0  0  0  0
   10.5884   -3.0725   16.7902 O   0  0  0  0  0  0  0  0  0  0  0  0
   10.4323   -5.3494   20.3516 C   0  0  0  0  0  0  0  0  0  0  0  0
    7.1156   -7.5454   16.8218 C   0  0  0  0  0  0  0  0  0  0  0  0
   10.3885   -4.4388   19.2773 C   0  0  0  0  0  0  0  0  0  0  0  0
    4.5160   -9.3822   15.0841 C   0  0  0  0  0  0  0  0  0  0  0  0
  1  3  4  0
  1 24  4  0
  2  6  4  0
  2 15  4  0
  3  5  4  0
  3  6  4  0
  4 21  4  0
  4 29  4  0
  5 15  4  0
  5 28  1  0
  6 16  4  0
  7 18  4  0
  7 26  4  0
  8 18  1  0
  8 19  4  0
  8 22  4  0
  9 12  4  0
  9 19  4  0
 10 12  4  0
 10 22  4  0
 11 20  4  0
 11 21  4  0
 12 23  1  0
 13 20  4  0
 13 29  4  0
 14 17  4  0
 14 28  4  0
 15 25  2  0
 16 27  4  0
 17 18  4  0
 20 27  1  0
 24 27  4  0
 26 28  4  0
M  END
$$$$

 Created by Python create_sdf_string function

 29 33  0  0  0  0  0  0  0  0999 V2000
    8.8270   -7.0288   18.4251 C   0  0  0  0  0  0  0  0  0  0  0  0
    9.1576   -4.6236   15.8860 O   0  0  0  0  0  0  0  0  0  0  0  0
    9.1509   -5.9108   17.7177 C   0  0  0  0  0  0  0  0  0  0  0  0
    3.6373   -9.5349   16.0582 N   0  0  0  0  0  0  0  0  0  0  0  0
    9.9275   -4.8001   18.0438 N   0  0  0  0  0  0  0  0  0  0  0  0
    8.5908   -5.7425   16.4412 C   0  0  0  0  0  0  0  0  0  0  0  0
   10.5993   -4.8981   21.6068 C   0  0  0  0  0  0  0  0  0  0  0  0
   10.4258   -3.0106   23.0998 C   0  0  0  0  0  0  0  0  0  0  0  0
   10.2148   -3.4364   25.4200 C   0  0  0  0  0  0  0  0  0  0  0  0
    9.7853   -1.1840   24.4927 C   0  0  0  0  0  0  0  0  0  0  0  0
    5.0276   -8.5227   17.5352 C   0  0  0  0  0  0  0  0  0  0  0  0
    9.8187   -2.0895   25.5800 C   0  0  0  0  0  0  0  0  0  0  0  0
    5.6473   -8.7216   15.3158 C   0  0  0  0  0  0  0  0  0  0  0  0
   10.7581   -3.1233   19.4720 N   0  0  0  0  0  0  0  0  0  0  0  0
    9.9571   -4.0573   16.8866 C   0  0  0  0  0  0  0  0  0  0  0  0
    7.6213   -6.5618   16.0087 C   0  0  0  0  0  0  0  0  0  0  0  0
   10.8583   -2.6527   20.7222 C   0  0  0  0  0  0  0  0  0  0  0  0
   10.6412   -3.5089   21.7936 C   0  0  0  0  0  0  0  0  0  0  0  0
   10.4972   -3.8968   24.1589 C   0  0  0  0  0  0  0  0  0  0  0  0
    5.9260   -8.2736   16.5517 C   0  0  0  0  0  0  0  0  0  0  0  0
    3.8816   -9.1166   17.2493 C   0  0  0  0  0  0  0  0  0  0  0  0
   10.1297   -1.6575   23.2324 C   0  0  0  0  0  0  0  0  0  0  0  0
    9.4684   -1.6929   26.7263 F   0  0  0  0  0  0  0  0  0  0  0  0
    7.7963   -7.7906   17.9837 C   0  0  0  0  0  0  0  0  0  0  0  0
   10.5884   -3.0725   16.7902 O   0  0  0  0  0  0  0  0  0  0  0  0
   10.4323   -5.3494   20.3516 C   0  0  0  0  0  0  0  0  0  0  0  0
    7.1156   -7.5454   16.8218 C   0  0  0  0  0  0  0  0  0  0  0  0
   10.3885   -4.4388   19.2773 C   0  0  0  0  0  0  0  0  0  0  0  0
    4.5160   -9.3822   15.0841 C   0  0  0  0  0  0  0  0  0  0  0  0
  1  3  4  0
  1 24  4  0
  2  6  4  0
  2 15  4  0
  3  5  4  0
  3  6  4  0
  4 21  4  0
  4 29  4  0
  5 15  4  0
  5 28  1  0
  6 16  4  0
  7 18  4  0
  7 26  4  0
  8 18  1  0
  8 19  4  0
  8 22  4  0
  9 12  4  0
  9 19  4  0
 10 12  4  0
 10 22  4  0
 11 20  4  0
 11 21  4  0
 12 23  1  0
 13 20  4  0
 13 29  4  0
 14 17  4  0
 14 28  4  0
 15 25  2  0
 16 27  4  0
 17 18  4  0
 20 27  1  0
 24 27  4  0
 26 28  4  0
M  END
$$$$

 Created by Python create_sdf_string function

 29 33  0  0  0  0  0  0  0  0999 V2000
    8.8270   -7.0288   18.4251 C   0  0  0  0  0  0  0  0  0  0  0  0
    9.1576   -4.6236   15.8860 O   0  0  0  0  0  0  0  0  0  0  0  0
    9.1509   -5.9108   17.7177 C   0  0  0  0  0  0  0  0  0  0  0  0
    3.6373   -9.5349   16.0582 N   0  0  0  0  0  0  0  0  0  0  0  0
    9.9275   -4.8001   18.0438 N   0  0  0  0  0  0  0  0  0  0  0  0
    8.5908   -5.7425   16.4412 C   0  0  0  0  0  0  0  0  0  0  0  0
   10.5993   -4.8981   21.6068 C   0  0  0  0  0  0  0  0  0  0  0  0
   10.4258   -3.0106   23.0998 C   0  0  0  0  0  0  0  0  0  0  0  0
   10.2148   -3.4364   25.4200 C   0  0  0  0  0  0  0  0  0  0  0  0
    9.7853   -1.1840   24.4927 C   0  0  0  0  0  0  0  0  0  0  0  0
    5.0276   -8.5227   17.5352 C   0  0  0  0  0  0  0  0  0  0  0  0
    9.8187   -2.0895   25.5800 C   0  0  0  0  0  0  0  0  0  0  0  0
    5.6473   -8.7216   15.3158 C   0  0  0  0  0  0  0  0  0  0  0  0
   10.7581   -3.1233   19.4720 N   0  0  0  0  0  0  0  0  0  0  0  0
    9.9571   -4.0573   16.8866 C   0  0  0  0  0  0  0  0  0  0  0  0
    7.6213   -6.5618   16.0087 C   0  0  0  0  0  0  0  0  0  0  0  0
   10.8583   -2.6527   20.7222 C   0  0  0  0  0  0  0  0  0  0  0  0
   10.6412   -3.5089   21.7936 C   0  0  0  0  0  0  0  0  0  0  0  0
   10.4972   -3.8968   24.1589 C   0  0  0  0  0  0  0  0  0  0  0  0
    5.9260   -8.2736   16.5517 C   0  0  0  0  0  0  0  0  0  0  0  0
    3.8816   -9.1166   17.2493 C   0  0  0  0  0  0  0  0  0  0  0  0
   10.1297   -1.6575   23.2324 C   0  0  0  0  0  0  0  0  0  0  0  0
    9.4684   -1.6929   26.7263 F   0  0  0  0  0  0  0  0  0  0  0  0
    7.7963   -7.7906   17.9837 C   0  0  0  0  0  0  0  0  0  0  0  0
   10.5884   -3.0725   16.7902 O   0  0  0  0  0  0  0  0  0  0  0  0
   10.4323   -5.3494   20.3516 C   0  0  0  0  0  0  0  0  0  0  0  0
    7.1156   -7.5454   16.8218 C   0  0  0  0  0  0  0  0  0  0  0  0
   10.3885   -4.4388   19.2773 C   0  0  0  0  0  0  0  0  0  0  0  0
    4.5160   -9.3822   15.0841 C   0  0  0  0  0  0  0  0  0  0  0  0
  1  3  4  0
  1 24  4  0
  2  6  4  0
  2 15  4  0
  3  5  4  0
  3  6  4  0
  4 21  4  0
  4 29  4  0
  5 15  4  0
  5 28  1  0
  6 16  4  0
  7 18  4  0
  7 26  4  0
  8 18  1  0
  8 19  4  0
  8 22  4  0
  9 12  4  0
  9 19  4  0
 10 12  4  0
 10 22  4  0
 11 20  4  0
 11 21  4  0
 12 23  1  0
 13 20  4  0
 13 29  4  0
 14 17  4  0
 14 28  4  0
 15 25  2  0
 16 27  4  0
 17 18  4  0
 20 27  1  0
 24 27  4  0
 26 28  4  0
M  END
$$$$

 Created by Python create_sdf_string function

 29 33  0  0  0  0  0  0  0  0999 V2000
    8.8270   -7.0288   18.4251 C   0  0  0  0  0  0  0  0  0  0  0  0
    9.1576   -4.6236   15.8860 O   0  0  0  0  0  0  0  0  0  0  0  0
    9.1509   -5.9108   17.7177 C   0  0  0  0  0  0  0  0  0  0  0  0
    3.6373   -9.5349   16.0582 N   0  0  0  0  0  0  0  0  0  0  0  0
    9.9275   -4.8001   18.0438 N   0  0  0  0  0  0  0  0  0  0  0  0
    8.5908   -5.7425   16.4412 C   0  0  0  0  0  0  0  0  0  0  0  0
   10.5993   -4.8981   21.6068 C   0  0  0  0  0  0  0  0  0  0  0  0
   10.4258   -3.0106   23.0998 C   0  0  0  0  0  0  0  0  0  0  0  0
   10.2148   -3.4364   25.4200 C   0  0  0  0  0  0  0  0  0  0  0  0
    9.7853   -1.1840   24.4927 C   0  0  0  0  0  0  0  0  0  0  0  0
    5.0276   -8.5227   17.5352 C   0  0  0  0  0  0  0  0  0  0  0  0
    9.8187   -2.0895   25.5800 C   0  0  0  0  0  0  0  0  0  0  0  0
    5.6473   -8.7216   15.3158 C   0  0  0  0  0  0  0  0  0  0  0  0
   10.7581   -3.1233   19.4720 N   0  0  0  0  0  0  0  0  0  0  0  0
    9.9571   -4.0573   16.8866 C   0  0  0  0  0  0  0  0  0  0  0  0
    7.6213   -6.5618   16.0087 C   0  0  0  0  0  0  0  0  0  0  0  0
   10.8583   -2.6527   20.7222 C   0  0  0  0  0  0  0  0  0  0  0  0
   10.6412   -3.5089   21.7936 C   0  0  0  0  0  0  0  0  0  0  0  0
   10.4972   -3.8968   24.1589 C   0  0  0  0  0  0  0  0  0  0  0  0
    5.9260   -8.2736   16.5517 C   0  0  0  0  0  0  0  0  0  0  0  0
    3.8816   -9.1166   17.2493 C   0  0  0  0  0  0  0  0  0  0  0  0
   10.1297   -1.6575   23.2324 C   0  0  0  0  0  0  0  0  0  0  0  0
    9.4684   -1.6929   26.7263 F   0  0  0  0  0  0  0  0  0  0  0  0
    7.7963   -7.7906   17.9837 C   0  0  0  0  0  0  0  0  0  0  0  0
   10.5884   -3.0725   16.7902 O   0  0  0  0  0  0  0  0  0  0  0  0
   10.4323   -5.3494   20.3516 C   0  0  0  0  0  0  0  0  0  0  0  0
    7.1156   -7.5454   16.8218 C   0  0  0  0  0  0  0  0  0  0  0  0
   10.3885   -4.4388   19.2773 C   0  0  0  0  0  0  0  0  0  0  0  0
    4.5160   -9.3822   15.0841 C   0  0  0  0  0  0  0  0  0  0  0  0
  1  3  4  0
  1 24  4  0
  2  6  4  0
  2 15  4  0
  3  5  4  0
  3  6  4  0
  4 21  4  0
  4 29  4  0
  5 15  4  0
  5 28  1  0
  6 16  4  0
  7 18  4  0
  7 26  4  0
  8 18  1  0
  8 19  4  0
  8 22  4  0
  9 12  4  0
  9 19  4  0
 10 12  4  0
 10 22  4  0
 11 20  4  0
 11 21  4  0
 12 23  1  0
 13 20  4  0
 13 29  4  0
 14 17  4  0
 14 28  4  0
 15 25  2  0
 16 27  4  0
 17 18  4  0
 20 27  1  0
 24 27  4  0
 26 28  4  0
M  END
$$$$

 Created by Python create_sdf_string function

 29 33  0  0  0  0  0  0  0  0999 V2000
    8.8270   -7.0288   18.4251 C   0  0  0  0  0  0  0  0  0  0  0  0
    9.1576   -4.6236   15.8860 O   0  0  0  0  0  0  0  0  0  0  0  0
    9.1509   -5.9108   17.7177 C   0  0  0  0  0  0  0  0  0  0  0  0
    3.6373   -9.5349   16.0582 N   0  0  0  0  0  0  0  0  0  0  0  0
    9.9275   -4.8001   18.0438 N   0  0  0  0  0  0  0  0  0  0  0  0
    8.5908   -5.7425   16.4412 C   0  0  0  0  0  0  0  0  0  0  0  0
   10.5993   -4.8981   21.6068 C   0  0  0  0  0  0  0  0  0  0  0  0
   10.4258   -3.0106   23.0998 C   0  0  0  0  0  0  0  0  0  0  0  0
   10.2148   -3.4364   25.4200 C   0  0  0  0  0  0  0  0  0  0  0  0
    9.7853   -1.1840   24.4927 C   0  0  0  0  0  0  0  0  0  0  0  0
    5.0276   -8.5227   17.5352 C   0  0  0  0  0  0  0  0  0  0  0  0
    9.8187   -2.0895   25.5800 C   0  0  0  0  0  0  0  0  0  0  0  0
    5.6473   -8.7216   15.3158 C   0  0  0  0  0  0  0  0  0  0  0  0
   10.7581   -3.1233   19.4720 N   0  0  0  0  0  0  0  0  0  0  0  0
    9.9571   -4.0573   16.8866 C   0  0  0  0  0  0  0  0  0  0  0  0
    7.6213   -6.5618   16.0087 C   0  0  0  0  0  0  0  0  0  0  0  0
   10.8583   -2.6527   20.7222 C   0  0  0  0  0  0  0  0  0  0  0  0
   10.6412   -3.5089   21.7936 C   0  0  0  0  0  0  0  0  0  0  0  0
   10.4972   -3.8968   24.1589 C   0  0  0  0  0  0  0  0  0  0  0  0
    5.9260   -8.2736   16.5517 C   0  0  0  0  0  0  0  0  0  0  0  0
    3.8816   -9.1166   17.2493 C   0  0  0  0  0  0  0  0  0  0  0  0
   10.1297   -1.6575   23.2324 C   0  0  0  0  0  0  0  0  0  0  0  0
    9.4684   -1.6929   26.7263 F   0  0  0  0  0  0  0  0  0  0  0  0
    7.7963   -7.7906   17.9837 C   0  0  0  0  0  0  0  0  0  0  0  0
   10.5884   -3.0725   16.7902 O   0  0  0  0  0  0  0  0  0  0  0  0
   10.4323   -5.3494   20.3516 C   0  0  0  0  0  0  0  0  0  0  0  0
    7.1156   -7.5454   16.8218 C   0  0  0  0  0  0  0  0  0  0  0  0
   10.3885   -4.4388   19.2773 C   0  0  0  0  0  0  0  0  0  0  0  0
    4.5160   -9.3822   15.0841 C   0  0  0  0  0  0  0  0  0  0  0  0
  1  3  4  0
  1 24  4  0
  2  6  4  0
  2 15  4  0
  3  5  4  0
  3  6  4  0
  4 21  4  0
  4 29  4  0
  5 15  4  0
  5 28  1  0
  6 16  4  0
  7 18  4  0
  7 26  4  0
  8 18  1  0
  8 19  4  0
  8 22  4  0
  9 12  4  0
  9 19  4  0
 10 12  4  0
 10 22  4  0
 11 20  4  0
 11 21  4  0
 12 23  1  0
 13 20  4  0
 13 29  4  0
 14 17  4  0
 14 28  4  0
 15 25  2  0
 16 27  4  0
 17 18  4  0
 20 27  1  0
 24 27  4  0
 26 28  4  0
M  END
$$$$

 Created by Python create_sdf_string function

 29 33  0  0  0  0  0  0  0  0999 V2000
    8.8270   -7.0288   18.4251 C   0  0  0  0  0  0  0  0  0  0  0  0
    9.1576   -4.6236   15.8860 O   0  0  0  0  0  0  0  0  0  0  0  0
    9.1509   -5.9108   17.7177 C   0  0  0  0  0  0  0  0  0  0  0  0
    3.6373   -9.5349   16.0582 N   0  0  0  0  0  0  0  0  0  0  0  0
    9.9275   -4.8001   18.0438 N   0  0  0  0  0  0  0  0  0  0  0  0
    8.5908   -5.7425   16.4412 C   0  0  0  0  0  0  0  0  0  0  0  0
   10.5993   -4.8981   21.6068 C   0  0  0  0  0  0  0  0  0  0  0  0
   10.4258   -3.0106   23.0998 C   0  0  0  0  0  0  0  0  0  0  0  0
   10.2148   -3.4364   25.4200 C   0  0  0  0  0  0  0  0  0  0  0  0
    9.7853   -1.1840   24.4927 C   0  0  0  0  0  0  0  0  0  0  0  0
    5.0276   -8.5227   17.5352 C   0  0  0  0  0  0  0  0  0  0  0  0
    9.8187   -2.0895   25.5800 C   0  0  0  0  0  0  0  0  0  0  0  0
    5.6473   -8.7216   15.3158 C   0  0  0  0  0  0  0  0  0  0  0  0
   10.7581   -3.1233   19.4720 N   0  0  0  0  0  0  0  0  0  0  0  0
    9.9571   -4.0573   16.8866 C   0  0  0  0  0  0  0  0  0  0  0  0
    7.6213   -6.5618   16.0087 C   0  0  0  0  0  0  0  0  0  0  0  0
   10.8583   -2.6527   20.7222 C   0  0  0  0  0  0  0  0  0  0  0  0
   10.6412   -3.5089   21.7936 C   0  0  0  0  0  0  0  0  0  0  0  0
   10.4972   -3.8968   24.1589 C   0  0  0  0  0  0  0  0  0  0  0  0
    5.9260   -8.2736   16.5517 C   0  0  0  0  0  0  0  0  0  0  0  0
    3.8816   -9.1166   17.2493 C   0  0  0  0  0  0  0  0  0  0  0  0
   10.1297   -1.6575   23.2324 C   0  0  0  0  0  0  0  0  0  0  0  0
    9.4684   -1.6929   26.7263 F   0  0  0  0  0  0  0  0  0  0  0  0
    7.7963   -7.7906   17.9837 C   0  0  0  0  0  0  0  0  0  0  0  0
   10.5884   -3.0725   16.7902 O   0  0  0  0  0  0  0  0  0  0  0  0
   10.4323   -5.3494   20.3516 C   0  0  0  0  0  0  0  0  0  0  0  0
    7.1156   -7.5454   16.8218 C   0  0  0  0  0  0  0  0  0  0  0  0
   10.3885   -4.4388   19.2773 C   0  0  0  0  0  0  0  0  0  0  0  0
    4.5160   -9.3822   15.0841 C   0  0  0  0  0  0  0  0  0  0  0  0
  1  3  4  0
  1 24  4  0
  2  6  4  0
  2 15  4  0
  3  5  4  0
  3  6  4  0
  4 21  4  0
  4 29  4  0
  5 15  4  0
  5 28  1  0
  6 16  4  0
  7 18  4  0
  7 26  4  0
  8 18  1  0
  8 19  4  0
  8 22  4  0
  9 12  4  0
  9 19  4  0
 10 12  4  0
 10 22  4  0
 11 20  4  0
 11 21  4  0
 12 23  1  0
 13 20  4  0
 13 29  4  0
 14 17  4  0
 14 28  4  0
 15 25  2  0
 16 27  4  0
 17 18  4  0
 20 27  1  0
 24 27  4  0
 26 28  4  0
M  END
$$$$

 Created by Python create_sdf_string function

 29 33  0  0  0  0  0  0  0  0999 V2000
    8.8270   -7.0288   18.4251 C   0  0  0  0  0  0  0  0  0  0  0  0
    9.1576   -4.6236   15.8860 O   0  0  0  0  0  0  0  0  0  0  0  0
    9.1509   -5.9108   17.7177 C   0  0  0  0  0  0  0  0  0  0  0  0
    3.6373   -9.5349   16.0582 N   0  0  0  0  0  0  0  0  0  0  0  0
    9.9275   -4.8001   18.0438 N   0  0  0  0  0  0  0  0  0  0  0  0
    8.5908   -5.7425   16.4412 C   0  0  0  0  0  0  0  0  0  0  0  0
   10.5993   -4.8981   21.6068 C   0  0  0  0  0  0  0  0  0  0  0  0
   10.4258   -3.0106   23.0998 C   0  0  0  0  0  0  0  0  0  0  0  0
   10.2148   -3.4364   25.4200 C   0  0  0  0  0  0  0  0  0  0  0  0
    9.7853   -1.1840   24.4927 C   0  0  0  0  0  0  0  0  0  0  0  0
    5.0276   -8.5227   17.5352 C   0  0  0  0  0  0  0  0  0  0  0  0
    9.8187   -2.0895   25.5800 C   0  0  0  0  0  0  0  0  0  0  0  0
    5.6473   -8.7216   15.3158 C   0  0  0  0  0  0  0  0  0  0  0  0
   10.7581   -3.1233   19.4720 N   0  0  0  0  0  0  0  0  0  0  0  0
    9.9571   -4.0573   16.8866 C   0  0  0  0  0  0  0  0  0  0  0  0
    7.6213   -6.5618   16.0087 C   0  0  0  0  0  0  0  0  0  0  0  0
   10.8583   -2.6527   20.7222 C   0  0  0  0  0  0  0  0  0  0  0  0
   10.6412   -3.5089   21.7936 C   0  0  0  0  0  0  0  0  0  0  0  0
   10.4972   -3.8968   24.1589 C   0  0  0  0  0  0  0  0  0  0  0  0
    5.9260   -8.2736   16.5517 C   0  0  0  0  0  0  0  0  0  0  0  0
    3.8816   -9.1166   17.2493 C   0  0  0  0  0  0  0  0  0  0  0  0
   10.1297   -1.6575   23.2324 C   0  0  0  0  0  0  0  0  0  0  0  0
    9.4684   -1.6929   26.7263 F   0  0  0  0  0  0  0  0  0  0  0  0
    7.7963   -7.7906   17.9837 C   0  0  0  0  0  0  0  0  0  0  0  0
   10.5884   -3.0725   16.7902 O   0  0  0  0  0  0  0  0  0  0  0  0
   10.4323   -5.3494   20.3516 C   0  0  0  0  0  0  0  0  0  0  0  0
    7.1156   -7.5454   16.8218 C   0  0  0  0  0  0  0  0  0  0  0  0
   10.3885   -4.4388   19.2773 C   0  0  0  0  0  0  0  0  0  0  0  0
    4.5160   -9.3822   15.0841 C   0  0  0  0  0  0  0  0  0  0  0  0
  1  3  4  0
  1 24  4  0
  2  6  4  0
  2 15  4  0
  3  5  4  0
  3  6  4  0
  4 21  4  0
  4 29  4  0
  5 15  4  0
  5 28  1  0
  6 16  4  0
  7 18  4  0
  7 26  4  0
  8 18  1  0
  8 19  4  0
  8 22  4  0
  9 12  4  0
  9 19  4  0
 10 12  4  0
 10 22  4  0
 11 20  4  0
 11 21  4  0
 12 23  1  0
 13 20  4  0
 13 29  4  0
 14 17  4  0
 14 28  4  0
 15 25  2  0
 16 27  4  0
 17 18  4  0
 20 27  1  0
 24 27  4  0
 26 28  4  0
M  END
$$$$

 Created by Python create_sdf_string function

 29 33  0  0  0  0  0  0  0  0999 V2000
    8.8270   -7.0288   18.4251 C   0  0  0  0  0  0  0  0  0  0  0  0
    9.1576   -4.6236   15.8860 O   0  0  0  0  0  0  0  0  0  0  0  0
    9.1509   -5.9108   17.7177 C   0  0  0  0  0  0  0  0  0  0  0  0
    3.6373   -9.5349   16.0582 N   0  0  0  0  0  0  0  0  0  0  0  0
    9.9275   -4.8001   18.0438 N   0  0  0  0  0  0  0  0  0  0  0  0
    8.5908   -5.7425   16.4412 C   0  0  0  0  0  0  0  0  0  0  0  0
   10.5993   -4.8981   21.6068 C   0  0  0  0  0  0  0  0  0  0  0  0
   10.4258   -3.0106   23.0998 C   0  0  0  0  0  0  0  0  0  0  0  0
   10.2148   -3.4364   25.4200 C   0  0  0  0  0  0  0  0  0  0  0  0
    9.7853   -1.1840   24.4927 C   0  0  0  0  0  0  0  0  0  0  0  0
    5.0276   -8.5227   17.5352 C   0  0  0  0  0  0  0  0  0  0  0  0
    9.8187   -2.0895   25.5800 C   0  0  0  0  0  0  0  0  0  0  0  0
    5.6473   -8.7216   15.3158 C   0  0  0  0  0  0  0  0  0  0  0  0
   10.7581   -3.1233   19.4720 N   0  0  0  0  0  0  0  0  0  0  0  0
    9.9571   -4.0573   16.8866 C   0  0  0  0  0  0  0  0  0  0  0  0
    7.6213   -6.5618   16.0087 C   0  0  0  0  0  0  0  0  0  0  0  0
   10.8583   -2.6527   20.7222 C   0  0  0  0  0  0  0  0  0  0  0  0
   10.6412   -3.5089   21.7936 C   0  0  0  0  0  0  0  0  0  0  0  0
   10.4972   -3.8968   24.1589 C   0  0  0  0  0  0  0  0  0  0  0  0
    5.9260   -8.2736   16.5517 C   0  0  0  0  0  0  0  0  0  0  0  0
    3.8816   -9.1166   17.2493 C   0  0  0  0  0  0  0  0  0  0  0  0
   10.1297   -1.6575   23.2324 C   0  0  0  0  0  0  0  0  0  0  0  0
    9.4684   -1.6929   26.7263 F   0  0  0  0  0  0  0  0  0  0  0  0
    7.7963   -7.7906   17.9837 C   0  0  0  0  0  0  0  0  0  0  0  0
   10.5884   -3.0725   16.7902 O   0  0  0  0  0  0  0  0  0  0  0  0
   10.4323   -5.3494   20.3516 C   0  0  0  0  0  0  0  0  0  0  0  0
    7.1156   -7.5454   16.8218 C   0  0  0  0  0  0  0  0  0  0  0  0
   10.3885   -4.4388   19.2773 C   0  0  0  0  0  0  0  0  0  0  0  0
    4.5160   -9.3822   15.0841 C   0  0  0  0  0  0  0  0  0  0  0  0
  1  3  4  0
  1 24  4  0
  2  6  4  0
  2 15  4  0
  3  5  4  0
  3  6  4  0
  4 21  4  0
  4 29  4  0
  5 15  4  0
  5 28  1  0
  6 16  4  0
  7 18  4  0
  7 26  4  0
  8 18  1  0
  8 19  4  0
  8 22  4  0
  9 12  4  0
  9 19  4  0
 10 12  4  0
 10 22  4  0
 11 20  4  0
 11 21  4  0
 12 23  1  0
 13 20  4  0
 13 29  4  0
 14 17  4  0
 14 28  4  0
 15 25  2  0
 16 27  4  0
 17 18  4  0
 20 27  1  0
 24 27  4  0
 26 28  4  0
M  END
$$$$

 Created by Python create_sdf_string function

 29 33  0  0  0  0  0  0  0  0999 V2000
    8.8270   -7.0288   18.4251 C   0  0  0  0  0  0  0  0  0  0  0  0
    9.1576   -4.6236   15.8860 O   0  0  0  0  0  0  0  0  0  0  0  0
    9.1509   -5.9108   17.7177 C   0  0  0  0  0  0  0  0  0  0  0  0
    3.6373   -9.5349   16.0582 N   0  0  0  0  0  0  0  0  0  0  0  0
    9.9275   -4.8001   18.0438 N   0  0  0  0  0  0  0  0  0  0  0  0
    8.5908   -5.7425   16.4412 C   0  0  0  0  0  0  0  0  0  0  0  0
   10.5993   -4.8981   21.6068 C   0  0  0  0  0  0  0  0  0  0  0  0
   10.4258   -3.0106   23.0998 C   0  0  0  0  0  0  0  0  0  0  0  0
   10.2148   -3.4364   25.4200 C   0  0  0  0  0  0  0  0  0  0  0  0
    9.7853   -1.1840   24.4927 C   0  0  0  0  0  0  0  0  0  0  0  0
    5.0276   -8.5227   17.5352 C   0  0  0  0  0  0  0  0  0  0  0  0
    9.8187   -2.0895   25.5800 C   0  0  0  0  0  0  0  0  0  0  0  0
    5.6473   -8.7216   15.3158 C   0  0  0  0  0  0  0  0  0  0  0  0
   10.7581   -3.1233   19.4720 N   0  0  0  0  0  0  0  0  0  0  0  0
    9.9571   -4.0573   16.8866 C   0  0  0  0  0  0  0  0  0  0  0  0
    7.6213   -6.5618   16.0087 C   0  0  0  0  0  0  0  0  0  0  0  0
   10.8583   -2.6527   20.7222 C   0  0  0  0  0  0  0  0  0  0  0  0
   10.6412   -3.5089   21.7936 C   0  0  0  0  0  0  0  0  0  0  0  0
   10.4972   -3.8968   24.1589 C   0  0  0  0  0  0  0  0  0  0  0  0
    5.9260   -8.2736   16.5517 C   0  0  0  0  0  0  0  0  0  0  0  0
    3.8816   -9.1166   17.2493 C   0  0  0  0  0  0  0  0  0  0  0  0
   10.1297   -1.6575   23.2324 C   0  0  0  0  0  0  0  0  0  0  0  0
    9.4684   -1.6929   26.7263 F   0  0  0  0  0  0  0  0  0  0  0  0
    7.7963   -7.7906   17.9837 C   0  0  0  0  0  0  0  0  0  0  0  0
   10.5884   -3.0725   16.7902 O   0  0  0  0  0  0  0  0  0  0  0  0
   10.4323   -5.3494   20.3516 C   0  0  0  0  0  0  0  0  0  0  0  0
    7.1156   -7.5454   16.8218 C   0  0  0  0  0  0  0  0  0  0  0  0
   10.3885   -4.4388   19.2773 C   0  0  0  0  0  0  0  0  0  0  0  0
    4.5160   -9.3822   15.0841 C   0  0  0  0  0  0  0  0  0  0  0  0
  1  3  4  0
  1 24  4  0
  2  6  4  0
  2 15  4  0
  3  5  4  0
  3  6  4  0
  4 21  4  0
  4 29  4  0
  5 15  4  0
  5 28  1  0
  6 16  4  0
  7 18  4  0
  7 26  4  0
  8 18  1  0
  8 19  4  0
  8 22  4  0
  9 12  4  0
  9 19  4  0
 10 12  4  0
 10 22  4  0
 11 20  4  0
 11 21  4  0
 12 23  1  0
 13 20  4  0
 13 29  4  0
 14 17  4  0
 14 28  4  0
 15 25  2  0
 16 27  4  0
 17 18  4  0
 20 27  1  0
 24 27  4  0
 26 28  4  0
M  END
$$$$

 Created by Python create_sdf_string function

 29 33  0  0  0  0  0  0  0  0999 V2000
    8.8270   -7.0288   18.4251 C   0  0  0  0  0  0  0  0  0  0  0  0
    9.1576   -4.6236   15.8860 O   0  0  0  0  0  0  0  0  0  0  0  0
    9.1509   -5.9108   17.7177 C   0  0  0  0  0  0  0  0  0  0  0  0
    3.6373   -9.5349   16.0582 N   0  0  0  0  0  0  0  0  0  0  0  0
    9.9275   -4.8001   18.0438 N   0  0  0  0  0  0  0  0  0  0  0  0
    8.5908   -5.7425   16.4412 C   0  0  0  0  0  0  0  0  0  0  0  0
   10.5993   -4.8981   21.6068 C   0  0  0  0  0  0  0  0  0  0  0  0
   10.4258   -3.0106   23.0998 C   0  0  0  0  0  0  0  0  0  0  0  0
   10.2148   -3.4364   25.4200 C   0  0  0  0  0  0  0  0  0  0  0  0
    9.7853   -1.1840   24.4927 C   0  0  0  0  0  0  0  0  0  0  0  0
    5.0276   -8.5227   17.5352 C   0  0  0  0  0  0  0  0  0  0  0  0
    9.8187   -2.0895   25.5800 C   0  0  0  0  0  0  0  0  0  0  0  0
    5.6473   -8.7216   15.3158 C   0  0  0  0  0  0  0  0  0  0  0  0
   10.7581   -3.1233   19.4720 N   0  0  0  0  0  0  0  0  0  0  0  0
    9.9571   -4.0573   16.8866 C   0  0  0  0  0  0  0  0  0  0  0  0
    7.6213   -6.5618   16.0087 C   0  0  0  0  0  0  0  0  0  0  0  0
   10.8583   -2.6527   20.7222 C   0  0  0  0  0  0  0  0  0  0  0  0
   10.6412   -3.5089   21.7936 C   0  0  0  0  0  0  0  0  0  0  0  0
   10.4972   -3.8968   24.1589 C   0  0  0  0  0  0  0  0  0  0  0  0
    5.9260   -8.2736   16.5517 C   0  0  0  0  0  0  0  0  0  0  0  0
    3.8816   -9.1166   17.2493 C   0  0  0  0  0  0  0  0  0  0  0  0
   10.1297   -1.6575   23.2324 C   0  0  0  0  0  0  0  0  0  0  0  0
    9.4684   -1.6929   26.7263 F   0  0  0  0  0  0  0  0  0  0  0  0
    7.7963   -7.7906   17.9837 C   0  0  0  0  0  0  0  0  0  0  0  0
   10.5884   -3.0725   16.7902 O   0  0  0  0  0  0  0  0  0  0  0  0
   10.4323   -5.3494   20.3516 C   0  0  0  0  0  0  0  0  0  0  0  0
    7.1156   -7.5454   16.8218 C   0  0  0  0  0  0  0  0  0  0  0  0
   10.3885   -4.4388   19.2773 C   0  0  0  0  0  0  0  0  0  0  0  0
    4.5160   -9.3822   15.0841 C   0  0  0  0  0  0  0  0  0  0  0  0
  1  3  4  0
  1 24  4  0
  2  6  4  0
  2 15  4  0
  3  5  4  0
  3  6  4  0
  4 21  4  0
  4 29  4  0
  5 15  4  0
  5 28  1  0
  6 16  4  0
  7 18  4  0
  7 26  4  0
  8 18  1  0
  8 19  4  0
  8 22  4  0
  9 12  4  0
  9 19  4  0
 10 12  4  0
 10 22  4  0
 11 20  4  0
 11 21  4  0
 12 23  1  0
 13 20  4  0
 13 29  4  0
 14 17  4  0
 14 28  4  0
 15 25  2  0
 16 27  4  0
 17 18  4  0
 20 27  1  0
 24 27  4  0
 26 28  4  0
M  END
$$$$

 Created by Python create_sdf_string function

 29 33  0  0  0  0  0  0  0  0999 V2000
    8.8270   -7.0288   18.4251 C   0  0  0  0  0  0  0  0  0  0  0  0
    9.1576   -4.6236   15.8860 O   0  0  0  0  0  0  0  0  0  0  0  0
    9.1509   -5.9108   17.7177 C   0  0  0  0  0  0  0  0  0  0  0  0
    3.6373   -9.5349   16.0582 N   0  0  0  0  0  0  0  0  0  0  0  0
    9.9275   -4.8001   18.0438 N   0  0  0  0  0  0  0  0  0  0  0  0
    8.5908   -5.7425   16.4412 C   0  0  0  0  0  0  0  0  0  0  0  0
   10.5993   -4.8981   21.6068 C   0  0  0  0  0  0  0  0  0  0  0  0
   10.4258   -3.0106   23.0998 C   0  0  0  0  0  0  0  0  0  0  0  0
   10.2148   -3.4364   25.4200 C   0  0  0  0  0  0  0  0  0  0  0  0
    9.7853   -1.1840   24.4927 C   0  0  0  0  0  0  0  0  0  0  0  0
    5.0276   -8.5227   17.5352 C   0  0  0  0  0  0  0  0  0  0  0  0
    9.8187   -2.0895   25.5800 C   0  0  0  0  0  0  0  0  0  0  0  0
    5.6473   -8.7216   15.3158 C   0  0  0  0  0  0  0  0  0  0  0  0
   10.7581   -3.1233   19.4720 N   0  0  0  0  0  0  0  0  0  0  0  0
    9.9571   -4.0573   16.8866 C   0  0  0  0  0  0  0  0  0  0  0  0
    7.6213   -6.5618   16.0087 C   0  0  0  0  0  0  0  0  0  0  0  0
   10.8583   -2.6527   20.7222 C   0  0  0  0  0  0  0  0  0  0  0  0
   10.6412   -3.5089   21.7936 C   0  0  0  0  0  0  0  0  0  0  0  0
   10.4972   -3.8968   24.1589 C   0  0  0  0  0  0  0  0  0  0  0  0
    5.9260   -8.2736   16.5517 C   0  0  0  0  0  0  0  0  0  0  0  0
    3.8816   -9.1166   17.2493 C   0  0  0  0  0  0  0  0  0  0  0  0
   10.1297   -1.6575   23.2324 C   0  0  0  0  0  0  0  0  0  0  0  0
    9.4684   -1.6929   26.7263 F   0  0  0  0  0  0  0  0  0  0  0  0
    7.7963   -7.7906   17.9837 C   0  0  0  0  0  0  0  0  0  0  0  0
   10.5884   -3.0725   16.7902 O   0  0  0  0  0  0  0  0  0  0  0  0
   10.4323   -5.3494   20.3516 C   0  0  0  0  0  0  0  0  0  0  0  0
    7.1156   -7.5454   16.8218 C   0  0  0  0  0  0  0  0  0  0  0  0
   10.3885   -4.4388   19.2773 C   0  0  0  0  0  0  0  0  0  0  0  0
    4.5160   -9.3822   15.0841 C   0  0  0  0  0  0  0  0  0  0  0  0
  1  3  4  0
  1 24  4  0
  2  6  4  0
  2 15  4  0
  3  5  4  0
  3  6  4  0
  4 21  4  0
  4 29  4  0
  5 15  4  0
  5 28  1  0
  6 16  4  0
  7 18  4  0
  7 26  4  0
  8 18  1  0
  8 19  4  0
  8 22  4  0
  9 12  4  0
  9 19  4  0
 10 12  4  0
 10 22  4  0
 11 20  4  0
 11 21  4  0
 12 23  1  0
 13 20  4  0
 13 29  4  0
 14 17  4  0
 14 28  4  0
 15 25  2  0
 16 27  4  0
 17 18  4  0
 20 27  1  0
 24 27  4  0
 26 28  4  0
M  END
$$$$

 Created by Python create_sdf_string function

 29 33  0  0  0  0  0  0  0  0999 V2000
    8.8270   -7.0288   18.4251 C   0  0  0  0  0  0  0  0  0  0  0  0
    9.1576   -4.6236   15.8860 O   0  0  0  0  0  0  0  0  0  0  0  0
    9.1509   -5.9108   17.7177 C   0  0  0  0  0  0  0  0  0  0  0  0
    3.6373   -9.5349   16.0582 N   0  0  0  0  0  0  0  0  0  0  0  0
    9.9275   -4.8001   18.0438 N   0  0  0  0  0  0  0  0  0  0  0  0
    8.5908   -5.7425   16.4412 C   0  0  0  0  0  0  0  0  0  0  0  0
   10.5993   -4.8981   21.6068 C   0  0  0  0  0  0  0  0  0  0  0  0
   10.4258   -3.0106   23.0998 C   0  0  0  0  0  0  0  0  0  0  0  0
   10.2148   -3.4364   25.4200 C   0  0  0  0  0  0  0  0  0  0  0  0
    9.7853   -1.1840   24.4927 C   0  0  0  0  0  0  0  0  0  0  0  0
    5.0276   -8.5227   17.5352 C   0  0  0  0  0  0  0  0  0  0  0  0
    9.8187   -2.0895   25.5800 C   0  0  0  0  0  0  0  0  0  0  0  0
    5.6473   -8.7216   15.3158 C   0  0  0  0  0  0  0  0  0  0  0  0
   10.7581   -3.1233   19.4720 N   0  0  0  0  0  0  0  0  0  0  0  0
    9.9571   -4.0573   16.8866 C   0  0  0  0  0  0  0  0  0  0  0  0
    7.6213   -6.5618   16.0087 C   0  0  0  0  0  0  0  0  0  0  0  0
   10.8583   -2.6527   20.7222 C   0  0  0  0  0  0  0  0  0  0  0  0
   10.6412   -3.5089   21.7936 C   0  0  0  0  0  0  0  0  0  0  0  0
   10.4972   -3.8968   24.1589 C   0  0  0  0  0  0  0  0  0  0  0  0
    5.9260   -8.2736   16.5517 C   0  0  0  0  0  0  0  0  0  0  0  0
    3.8816   -9.1166   17.2493 C   0  0  0  0  0  0  0  0  0  0  0  0
   10.1297   -1.6575   23.2324 C   0  0  0  0  0  0  0  0  0  0  0  0
    9.4684   -1.6929   26.7263 F   0  0  0  0  0  0  0  0  0  0  0  0
    7.7963   -7.7906   17.9837 C   0  0  0  0  0  0  0  0  0  0  0  0
   10.5884   -3.0725   16.7902 O   0  0  0  0  0  0  0  0  0  0  0  0
   10.4323   -5.3494   20.3516 C   0  0  0  0  0  0  0  0  0  0  0  0
    7.1156   -7.5454   16.8218 C   0  0  0  0  0  0  0  0  0  0  0  0
   10.3885   -4.4388   19.2773 C   0  0  0  0  0  0  0  0  0  0  0  0
    4.5160   -9.3822   15.0841 C   0  0  0  0  0  0  0  0  0  0  0  0
  1  3  4  0
  1 24  4  0
  2  6  4  0
  2 15  4  0
  3  5  4  0
  3  6  4  0
  4 21  4  0
  4 29  4  0
  5 15  4  0
  5 28  1  0
  6 16  4  0
  7 18  4  0
  7 26  4  0
  8 18  1  0
  8 19  4  0
  8 22  4  0
  9 12  4  0
  9 19  4  0
 10 12  4  0
 10 22  4  0
 11 20  4  0
 11 21  4  0
 12 23  1  0
 13 20  4  0
 13 29  4  0
 14 17  4  0
 14 28  4  0
 15 25  2  0
 16 27  4  0
 17 18  4  0
 20 27  1  0
 24 27  4  0
 26 28  4  0
M  END
$$$$

 Created by Python create_sdf_string function

 29 33  0  0  0  0  0  0  0  0999 V2000
    8.8270   -7.0288   18.4251 C   0  0  0  0  0  0  0  0  0  0  0  0
    9.1576   -4.6236   15.8860 O   0  0  0  0  0  0  0  0  0  0  0  0
    9.1509   -5.9108   17.7177 C   0  0  0  0  0  0  0  0  0  0  0  0
    3.6373   -9.5349   16.0582 N   0  0  0  0  0  0  0  0  0  0  0  0
    9.9275   -4.8001   18.0438 N   0  0  0  0  0  0  0  0  0  0  0  0
    8.5908   -5.7425   16.4412 C   0  0  0  0  0  0  0  0  0  0  0  0
   10.5993   -4.8981   21.6068 C   0  0  0  0  0  0  0  0  0  0  0  0
   10.4258   -3.0106   23.0998 C   0  0  0  0  0  0  0  0  0  0  0  0
   10.2148   -3.4364   25.4200 C   0  0  0  0  0  0  0  0  0  0  0  0
    9.7853   -1.1840   24.4927 C   0  0  0  0  0  0  0  0  0  0  0  0
    5.0276   -8.5227   17.5352 C   0  0  0  0  0  0  0  0  0  0  0  0
    9.8187   -2.0895   25.5800 C   0  0  0  0  0  0  0  0  0  0  0  0
    5.6473   -8.7216   15.3158 C   0  0  0  0  0  0  0  0  0  0  0  0
   10.7581   -3.1233   19.4720 N   0  0  0  0  0  0  0  0  0  0  0  0
    9.9571   -4.0573   16.8866 C   0  0  0  0  0  0  0  0  0  0  0  0
    7.6213   -6.5618   16.0087 C   0  0  0  0  0  0  0  0  0  0  0  0
   10.8583   -2.6527   20.7222 C   0  0  0  0  0  0  0  0  0  0  0  0
   10.6412   -3.5089   21.7936 C   0  0  0  0  0  0  0  0  0  0  0  0
   10.4972   -3.8968   24.1589 C   0  0  0  0  0  0  0  0  0  0  0  0
    5.9260   -8.2736   16.5517 C   0  0  0  0  0  0  0  0  0  0  0  0
    3.8816   -9.1166   17.2493 C   0  0  0  0  0  0  0  0  0  0  0  0
   10.1297   -1.6575   23.2324 C   0  0  0  0  0  0  0  0  0  0  0  0
    9.4684   -1.6929   26.7263 F   0  0  0  0  0  0  0  0  0  0  0  0
    7.7963   -7.7906   17.9837 C   0  0  0  0  0  0  0  0  0  0  0  0
   10.5884   -3.0725   16.7902 O   0  0  0  0  0  0  0  0  0  0  0  0
   10.4323   -5.3494   20.3516 C   0  0  0  0  0  0  0  0  0  0  0  0
    7.1156   -7.5454   16.8218 C   0  0  0  0  0  0  0  0  0  0  0  0
   10.3885   -4.4388   19.2773 C   0  0  0  0  0  0  0  0  0  0  0  0
    4.5160   -9.3822   15.0841 C   0  0  0  0  0  0  0  0  0  0  0  0
  1  3  4  0
  1 24  4  0
  2  6  4  0
  2 15  4  0
  3  5  4  0
  3  6  4  0
  4 21  4  0
  4 29  4  0
  5 15  4  0
  5 28  1  0
  6 16  4  0
  7 18  4  0
  7 26  4  0
  8 18  1  0
  8 19  4  0
  8 22  4  0
  9 12  4  0
  9 19  4  0
 10 12  4  0
 10 22  4  0
 11 20  4  0
 11 21  4  0
 12 23  1  0
 13 20  4  0
 13 29  4  0
 14 17  4  0
 14 28  4  0
 15 25  2  0
 16 27  4  0
 17 18  4  0
 20 27  1  0
 24 27  4  0
 26 28  4  0
M  END
$$$$

 Created by Python create_sdf_string function

 29 33  0  0  0  0  0  0  0  0999 V2000
    8.8270   -7.0288   18.4251 C   0  0  0  0  0  0  0  0  0  0  0  0
    9.1576   -4.6236   15.8860 O   0  0  0  0  0  0  0  0  0  0  0  0
    9.1509   -5.9108   17.7177 C   0  0  0  0  0  0  0  0  0  0  0  0
    3.6373   -9.5349   16.0582 N   0  0  0  0  0  0  0  0  0  0  0  0
    9.9275   -4.8001   18.0438 N   0  0  0  0  0  0  0  0  0  0  0  0
    8.5908   -5.7425   16.4412 C   0  0  0  0  0  0  0  0  0  0  0  0
   10.5993   -4.8981   21.6068 C   0  0  0  0  0  0  0  0  0  0  0  0
   10.4258   -3.0106   23.0998 C   0  0  0  0  0  0  0  0  0  0  0  0
   10.2148   -3.4364   25.4200 C   0  0  0  0  0  0  0  0  0  0  0  0
    9.7853   -1.1840   24.4927 C   0  0  0  0  0  0  0  0  0  0  0  0
    5.0276   -8.5227   17.5352 C   0  0  0  0  0  0  0  0  0  0  0  0
    9.8187   -2.0895   25.5800 C   0  0  0  0  0  0  0  0  0  0  0  0
    5.6473   -8.7216   15.3158 C   0  0  0  0  0  0  0  0  0  0  0  0
   10.7581   -3.1233   19.4720 N   0  0  0  0  0  0  0  0  0  0  0  0
    9.9571   -4.0573   16.8866 C   0  0  0  0  0  0  0  0  0  0  0  0
    7.6213   -6.5618   16.0087 C   0  0  0  0  0  0  0  0  0  0  0  0
   10.8583   -2.6527   20.7222 C   0  0  0  0  0  0  0  0  0  0  0  0
   10.6412   -3.5089   21.7936 C   0  0  0  0  0  0  0  0  0  0  0  0
   10.4972   -3.8968   24.1589 C   0  0  0  0  0  0  0  0  0  0  0  0
    5.9260   -8.2736   16.5517 C   0  0  0  0  0  0  0  0  0  0  0  0
    3.8816   -9.1166   17.2493 C   0  0  0  0  0  0  0  0  0  0  0  0
   10.1297   -1.6575   23.2324 C   0  0  0  0  0  0  0  0  0  0  0  0
    9.4684   -1.6929   26.7263 F   0  0  0  0  0  0  0  0  0  0  0  0
    7.7963   -7.7906   17.9837 C   0  0  0  0  0  0  0  0  0  0  0  0
   10.5884   -3.0725   16.7902 O   0  0  0  0  0  0  0  0  0  0  0  0
   10.4323   -5.3494   20.3516 C   0  0  0  0  0  0  0  0  0  0  0  0
    7.1156   -7.5454   16.8218 C   0  0  0  0  0  0  0  0  0  0  0  0
   10.3885   -4.4388   19.2773 C   0  0  0  0  0  0  0  0  0  0  0  0
    4.5160   -9.3822   15.0841 C   0  0  0  0  0  0  0  0  0  0  0  0
  1  3  4  0
  1 24  4  0
  2  6  4  0
  2 15  4  0
  3  5  4  0
  3  6  4  0
  4 21  4  0
  4 29  4  0
  5 15  4  0
  5 28  1  0
  6 16  4  0
  7 18  4  0
  7 26  4  0
  8 18  1  0
  8 19  4  0
  8 22  4  0
  9 12  4  0
  9 19  4  0
 10 12  4  0
 10 22  4  0
 11 20  4  0
 11 21  4  0
 12 23  1  0
 13 20  4  0
 13 29  4  0
 14 17  4  0
 14 28  4  0
 15 25  2  0
 16 27  4  0
 17 18  4  0
 20 27  1  0
 24 27  4  0
 26 28  4  0
M  END
$$$$

 Created by Python create_sdf_string function

 29 33  0  0  0  0  0  0  0  0999 V2000
    8.8270   -7.0288   18.4251 C   0  0  0  0  0  0  0  0  0  0  0  0
    9.1576   -4.6236   15.8860 O   0  0  0  0  0  0  0  0  0  0  0  0
    9.1509   -5.9108   17.7177 C   0  0  0  0  0  0  0  0  0  0  0  0
    3.6373   -9.5349   16.0582 N   0  0  0  0  0  0  0  0  0  0  0  0
    9.9275   -4.8001   18.0438 N   0  0  0  0  0  0  0  0  0  0  0  0
    8.5908   -5.7425   16.4412 C   0  0  0  0  0  0  0  0  0  0  0  0
   10.5993   -4.8981   21.6068 C   0  0  0  0  0  0  0  0  0  0  0  0
   10.4258   -3.0106   23.0998 C   0  0  0  0  0  0  0  0  0  0  0  0
   10.2148   -3.4364   25.4200 C   0  0  0  0  0  0  0  0  0  0  0  0
    9.7853   -1.1840   24.4927 C   0  0  0  0  0  0  0  0  0  0  0  0
    5.0276   -8.5227   17.5352 C   0  0  0  0  0  0  0  0  0  0  0  0
    9.8187   -2.0895   25.5800 C   0  0  0  0  0  0  0  0  0  0  0  0
    5.6473   -8.7216   15.3158 C   0  0  0  0  0  0  0  0  0  0  0  0
   10.7581   -3.1233   19.4720 N   0  0  0  0  0  0  0  0  0  0  0  0
    9.9571   -4.0573   16.8866 C   0  0  0  0  0  0  0  0  0  0  0  0
    7.6213   -6.5618   16.0087 C   0  0  0  0  0  0  0  0  0  0  0  0
   10.8583   -2.6527   20.7222 C   0  0  0  0  0  0  0  0  0  0  0  0
   10.6412   -3.5089   21.7936 C   0  0  0  0  0  0  0  0  0  0  0  0
   10.4972   -3.8968   24.1589 C   0  0  0  0  0  0  0  0  0  0  0  0
    5.9260   -8.2736   16.5517 C   0  0  0  0  0  0  0  0  0  0  0  0
    3.8816   -9.1166   17.2493 C   0  0  0  0  0  0  0  0  0  0  0  0
   10.1297   -1.6575   23.2324 C   0  0  0  0  0  0  0  0  0  0  0  0
    9.4684   -1.6929   26.7263 F   0  0  0  0  0  0  0  0  0  0  0  0
    7.7963   -7.7906   17.9837 C   0  0  0  0  0  0  0  0  0  0  0  0
   10.5884   -3.0725   16.7902 O   0  0  0  0  0  0  0  0  0  0  0  0
   10.4323   -5.3494   20.3516 C   0  0  0  0  0  0  0  0  0  0  0  0
    7.1156   -7.5454   16.8218 C   0  0  0  0  0  0  0  0  0  0  0  0
   10.3885   -4.4388   19.2773 C   0  0  0  0  0  0  0  0  0  0  0  0
    4.5160   -9.3822   15.0841 C   0  0  0  0  0  0  0  0  0  0  0  0
  1  3  4  0
  1 24  4  0
  2  6  4  0
  2 15  4  0
  3  5  4  0
  3  6  4  0
  4 21  4  0
  4 29  4  0
  5 15  4  0
  5 28  1  0
  6 16  4  0
  7 18  4  0
  7 26  4  0
  8 18  1  0
  8 19  4  0
  8 22  4  0
  9 12  4  0
  9 19  4  0
 10 12  4  0
 10 22  4  0
 11 20  4  0
 11 21  4  0
 12 23  1  0
 13 20  4  0
 13 29  4  0
 14 17  4  0
 14 28  4  0
 15 25  2  0
 16 27  4  0
 17 18  4  0
 20 27  1  0
 24 27  4  0
 26 28  4  0
M  END
$$$$

 Created by Python create_sdf_string function

 29 33  0  0  0  0  0  0  0  0999 V2000
    8.8270   -7.0288   18.4251 C   0  0  0  0  0  0  0  0  0  0  0  0
    9.1576   -4.6236   15.8860 O   0  0  0  0  0  0  0  0  0  0  0  0
    9.1509   -5.9108   17.7177 C   0  0  0  0  0  0  0  0  0  0  0  0
    3.6373   -9.5349   16.0582 N   0  0  0  0  0  0  0  0  0  0  0  0
    9.9275   -4.8001   18.0438 N   0  0  0  0  0  0  0  0  0  0  0  0
    8.5908   -5.7425   16.4412 C   0  0  0  0  0  0  0  0  0  0  0  0
   10.5993   -4.8981   21.6068 C   0  0  0  0  0  0  0  0  0  0  0  0
   10.4258   -3.0106   23.0998 C   0  0  0  0  0  0  0  0  0  0  0  0
   10.2148   -3.4364   25.4200 C   0  0  0  0  0  0  0  0  0  0  0  0
    9.7853   -1.1840   24.4927 C   0  0  0  0  0  0  0  0  0  0  0  0
    5.0276   -8.5227   17.5352 C   0  0  0  0  0  0  0  0  0  0  0  0
    9.8187   -2.0895   25.5800 C   0  0  0  0  0  0  0  0  0  0  0  0
    5.6473   -8.7216   15.3158 C   0  0  0  0  0  0  0  0  0  0  0  0
   10.7581   -3.1233   19.4720 N   0  0  0  0  0  0  0  0  0  0  0  0
    9.9571   -4.0573   16.8866 C   0  0  0  0  0  0  0  0  0  0  0  0
    7.6213   -6.5618   16.0087 C   0  0  0  0  0  0  0  0  0  0  0  0
   10.8583   -2.6527   20.7222 C   0  0  0  0  0  0  0  0  0  0  0  0
   10.6412   -3.5089   21.7936 C   0  0  0  0  0  0  0  0  0  0  0  0
   10.4972   -3.8968   24.1589 C   0  0  0  0  0  0  0  0  0  0  0  0
    5.9260   -8.2736   16.5517 C   0  0  0  0  0  0  0  0  0  0  0  0
    3.8816   -9.1166   17.2493 C   0  0  0  0  0  0  0  0  0  0  0  0
   10.1297   -1.6575   23.2324 C   0  0  0  0  0  0  0  0  0  0  0  0
    9.4684   -1.6929   26.7263 F   0  0  0  0  0  0  0  0  0  0  0  0
    7.7963   -7.7906   17.9837 C   0  0  0  0  0  0  0  0  0  0  0  0
   10.5884   -3.0725   16.7902 O   0  0  0  0  0  0  0  0  0  0  0  0
   10.4323   -5.3494   20.3516 C   0  0  0  0  0  0  0  0  0  0  0  0
    7.1156   -7.5454   16.8218 C   0  0  0  0  0  0  0  0  0  0  0  0
   10.3885   -4.4388   19.2773 C   0  0  0  0  0  0  0  0  0  0  0  0
    4.5160   -9.3822   15.0841 C   0  0  0  0  0  0  0  0  0  0  0  0
  1  3  4  0
  1 24  4  0
  2  6  4  0
  2 15  4  0
  3  5  4  0
  3  6  4  0
  4 21  4  0
  4 29  4  0
  5 15  4  0
  5 28  1  0
  6 16  4  0
  7 18  4  0
  7 26  4  0
  8 18  1  0
  8 19  4  0
  8 22  4  0
  9 12  4  0
  9 19  4  0
 10 12  4  0
 10 22  4  0
 11 20  4  0
 11 21  4  0
 12 23  1  0
 13 20  4  0
 13 29  4  0
 14 17  4  0
 14 28  4  0
 15 25  2  0
 16 27  4  0
 17 18  4  0
 20 27  1  0
 24 27  4  0
 26 28  4  0
M  END
$$$$

 Created by Python create_sdf_string function

 29 33  0  0  0  0  0  0  0  0999 V2000
    8.8270   -7.0288   18.4251 C   0  0  0  0  0  0  0  0  0  0  0  0
    9.1576   -4.6236   15.8860 O   0  0  0  0  0  0  0  0  0  0  0  0
    9.1509   -5.9108   17.7177 C   0  0  0  0  0  0  0  0  0  0  0  0
    3.6373   -9.5349   16.0582 N   0  0  0  0  0  0  0  0  0  0  0  0
    9.9275   -4.8001   18.0438 N   0  0  0  0  0  0  0  0  0  0  0  0
    8.5908   -5.7425   16.4412 C   0  0  0  0  0  0  0  0  0  0  0  0
   10.5993   -4.8981   21.6068 C   0  0  0  0  0  0  0  0  0  0  0  0
   10.4258   -3.0106   23.0998 C   0  0  0  0  0  0  0  0  0  0  0  0
   10.2148   -3.4364   25.4200 C   0  0  0  0  0  0  0  0  0  0  0  0
    9.7853   -1.1840   24.4927 C   0  0  0  0  0  0  0  0  0  0  0  0
    5.0276   -8.5227   17.5352 C   0  0  0  0  0  0  0  0  0  0  0  0
    9.8187   -2.0895   25.5800 C   0  0  0  0  0  0  0  0  0  0  0  0
    5.6473   -8.7216   15.3158 C   0  0  0  0  0  0  0  0  0  0  0  0
   10.7581   -3.1233   19.4720 N   0  0  0  0  0  0  0  0  0  0  0  0
    9.9571   -4.0573   16.8866 C   0  0  0  0  0  0  0  0  0  0  0  0
    7.6213   -6.5618   16.0087 C   0  0  0  0  0  0  0  0  0  0  0  0
   10.8583   -2.6527   20.7222 C   0  0  0  0  0  0  0  0  0  0  0  0
   10.6412   -3.5089   21.7936 C   0  0  0  0  0  0  0  0  0  0  0  0
   10.4972   -3.8968   24.1589 C   0  0  0  0  0  0  0  0  0  0  0  0
    5.9260   -8.2736   16.5517 C   0  0  0  0  0  0  0  0  0  0  0  0
    3.8816   -9.1166   17.2493 C   0  0  0  0  0  0  0  0  0  0  0  0
   10.1297   -1.6575   23.2324 C   0  0  0  0  0  0  0  0  0  0  0  0
    9.4684   -1.6929   26.7263 F   0  0  0  0  0  0  0  0  0  0  0  0
    7.7963   -7.7906   17.9837 C   0  0  0  0  0  0  0  0  0  0  0  0
   10.5884   -3.0725   16.7902 O   0  0  0  0  0  0  0  0  0  0  0  0
   10.4323   -5.3494   20.3516 C   0  0  0  0  0  0  0  0  0  0  0  0
    7.1156   -7.5454   16.8218 C   0  0  0  0  0  0  0  0  0  0  0  0
   10.3885   -4.4388   19.2773 C   0  0  0  0  0  0  0  0  0  0  0  0
    4.5160   -9.3822   15.0841 C   0  0  0  0  0  0  0  0  0  0  0  0
  1  3  4  0
  1 24  4  0
  2  6  4  0
  2 15  4  0
  3  5  4  0
  3  6  4  0
  4 21  4  0
  4 29  4  0
  5 15  4  0
  5 28  1  0
  6 16  4  0
  7 18  4  0
  7 26  4  0
  8 18  1  0
  8 19  4  0
  8 22  4  0
  9 12  4  0
  9 19  4  0
 10 12  4  0
 10 22  4  0
 11 20  4  0
 11 21  4  0
 12 23  1  0
 13 20  4  0
 13 29  4  0
 14 17  4  0
 14 28  4  0
 15 25  2  0
 16 27  4  0
 17 18  4  0
 20 27  1  0
 24 27  4  0
 26 28  4  0
M  END
$$$$

 Created by Python create_sdf_string function

 29 33  0  0  0  0  0  0  0  0999 V2000
    8.8270   -7.0288   18.4251 C   0  0  0  0  0  0  0  0  0  0  0  0
    9.1576   -4.6236   15.8860 O   0  0  0  0  0  0  0  0  0  0  0  0
    9.1509   -5.9108   17.7177 C   0  0  0  0  0  0  0  0  0  0  0  0
    3.6373   -9.5349   16.0582 N   0  0  0  0  0  0  0  0  0  0  0  0
    9.9275   -4.8001   18.0438 N   0  0  0  0  0  0  0  0  0  0  0  0
    8.5908   -5.7425   16.4412 C   0  0  0  0  0  0  0  0  0  0  0  0
   10.5993   -4.8981   21.6068 C   0  0  0  0  0  0  0  0  0  0  0  0
   10.4258   -3.0106   23.0998 C   0  0  0  0  0  0  0  0  0  0  0  0
   10.2148   -3.4364   25.4200 C   0  0  0  0  0  0  0  0  0  0  0  0
    9.7853   -1.1840   24.4927 C   0  0  0  0  0  0  0  0  0  0  0  0
    5.0276   -8.5227   17.5352 C   0  0  0  0  0  0  0  0  0  0  0  0
    9.8187   -2.0895   25.5800 C   0  0  0  0  0  0  0  0  0  0  0  0
    5.6473   -8.7216   15.3158 C   0  0  0  0  0  0  0  0  0  0  0  0
   10.7581   -3.1233   19.4720 N   0  0  0  0  0  0  0  0  0  0  0  0
    9.9571   -4.0573   16.8866 C   0  0  0  0  0  0  0  0  0  0  0  0
    7.6213   -6.5618   16.0087 C   0  0  0  0  0  0  0  0  0  0  0  0
   10.8583   -2.6527   20.7222 C   0  0  0  0  0  0  0  0  0  0  0  0
   10.6412   -3.5089   21.7936 C   0  0  0  0  0  0  0  0  0  0  0  0
   10.4972   -3.8968   24.1589 C   0  0  0  0  0  0  0  0  0  0  0  0
    5.9260   -8.2736   16.5517 C   0  0  0  0  0  0  0  0  0  0  0  0
    3.8816   -9.1166   17.2493 C   0  0  0  0  0  0  0  0  0  0  0  0
   10.1297   -1.6575   23.2324 C   0  0  0  0  0  0  0  0  0  0  0  0
    9.4684   -1.6929   26.7263 F   0  0  0  0  0  0  0  0  0  0  0  0
    7.7963   -7.7906   17.9837 C   0  0  0  0  0  0  0  0  0  0  0  0
   10.5884   -3.0725   16.7902 O   0  0  0  0  0  0  0  0  0  0  0  0
   10.4323   -5.3494   20.3516 C   0  0  0  0  0  0  0  0  0  0  0  0
    7.1156   -7.5454   16.8218 C   0  0  0  0  0  0  0  0  0  0  0  0
   10.3885   -4.4388   19.2773 C   0  0  0  0  0  0  0  0  0  0  0  0
    4.5160   -9.3822   15.0841 C   0  0  0  0  0  0  0  0  0  0  0  0
  1  3  4  0
  1 24  4  0
  2  6  4  0
  2 15  4  0
  3  5  4  0
  3  6  4  0
  4 21  4  0
  4 29  4  0
  5 15  4  0
  5 28  1  0
  6 16  4  0
  7 18  4  0
  7 26  4  0
  8 18  1  0
  8 19  4  0
  8 22  4  0
  9 12  4  0
  9 19  4  0
 10 12  4  0
 10 22  4  0
 11 20  4  0
 11 21  4  0
 12 23  1  0
 13 20  4  0
 13 29  4  0
 14 17  4  0
 14 28  4  0
 15 25  2  0
 16 27  4  0
 17 18  4  0
 20 27  1  0
 24 27  4  0
 26 28  4  0
M  END
$$$$

 Created by Python create_sdf_string function

 29 33  0  0  0  0  0  0  0  0999 V2000
    8.8270   -7.0288   18.4251 C   0  0  0  0  0  0  0  0  0  0  0  0
    9.1576   -4.6236   15.8860 O   0  0  0  0  0  0  0  0  0  0  0  0
    9.1509   -5.9108   17.7177 C   0  0  0  0  0  0  0  0  0  0  0  0
    3.6373   -9.5349   16.0582 N   0  0  0  0  0  0  0  0  0  0  0  0
    9.9275   -4.8001   18.0438 N   0  0  0  0  0  0  0  0  0  0  0  0
    8.5908   -5.7425   16.4412 C   0  0  0  0  0  0  0  0  0  0  0  0
   10.5993   -4.8981   21.6068 C   0  0  0  0  0  0  0  0  0  0  0  0
   10.4258   -3.0106   23.0998 C   0  0  0  0  0  0  0  0  0  0  0  0
   10.2148   -3.4364   25.4200 C   0  0  0  0  0  0  0  0  0  0  0  0
    9.7853   -1.1840   24.4927 C   0  0  0  0  0  0  0  0  0  0  0  0
    5.0276   -8.5227   17.5352 C   0  0  0  0  0  0  0  0  0  0  0  0
    9.8187   -2.0895   25.5800 C   0  0  0  0  0  0  0  0  0  0  0  0
    5.6473   -8.7216   15.3158 C   0  0  0  0  0  0  0  0  0  0  0  0
   10.7581   -3.1233   19.4720 N   0  0  0  0  0  0  0  0  0  0  0  0
    9.9571   -4.0573   16.8866 C   0  0  0  0  0  0  0  0  0  0  0  0
    7.6213   -6.5618   16.0087 C   0  0  0  0  0  0  0  0  0  0  0  0
   10.8583   -2.6527   20.7222 C   0  0  0  0  0  0  0  0  0  0  0  0
   10.6412   -3.5089   21.7936 C   0  0  0  0  0  0  0  0  0  0  0  0
   10.4972   -3.8968   24.1589 C   0  0  0  0  0  0  0  0  0  0  0  0
    5.9260   -8.2736   16.5517 C   0  0  0  0  0  0  0  0  0  0  0  0
    3.8816   -9.1166   17.2493 C   0  0  0  0  0  0  0  0  0  0  0  0
   10.1297   -1.6575   23.2324 C   0  0  0  0  0  0  0  0  0  0  0  0
    9.4684   -1.6929   26.7263 F   0  0  0  0  0  0  0  0  0  0  0  0
    7.7963   -7.7906   17.9837 C   0  0  0  0  0  0  0  0  0  0  0  0
   10.5884   -3.0725   16.7902 O   0  0  0  0  0  0  0  0  0  0  0  0
   10.4323   -5.3494   20.3516 C   0  0  0  0  0  0  0  0  0  0  0  0
    7.1156   -7.5454   16.8218 C   0  0  0  0  0  0  0  0  0  0  0  0
   10.3885   -4.4388   19.2773 C   0  0  0  0  0  0  0  0  0  0  0  0
    4.5160   -9.3822   15.0841 C   0  0  0  0  0  0  0  0  0  0  0  0
  1  3  4  0
  1 24  4  0
  2  6  4  0
  2 15  4  0
  3  5  4  0
  3  6  4  0
  4 21  4  0
  4 29  4  0
  5 15  4  0
  5 28  1  0
  6 16  4  0
  7 18  4  0
  7 26  4  0
  8 18  1  0
  8 19  4  0
  8 22  4  0
  9 12  4  0
  9 19  4  0
 10 12  4  0
 10 22  4  0
 11 20  4  0
 11 21  4  0
 12 23  1  0
 13 20  4  0
 13 29  4  0
 14 17  4  0
 14 28  4  0
 15 25  2  0
 16 27  4  0
 17 18  4  0
 20 27  1  0
 24 27  4  0
 26 28  4  0
M  END
$$$$

 Created by Python create_sdf_string function

 29 33  0  0  0  0  0  0  0  0999 V2000
    8.8270   -7.0288   18.4251 C   0  0  0  0  0  0  0  0  0  0  0  0
    9.1576   -4.6236   15.8860 O   0  0  0  0  0  0  0  0  0  0  0  0
    9.1509   -5.9108   17.7177 C   0  0  0  0  0  0  0  0  0  0  0  0
    3.6373   -9.5349   16.0582 N   0  0  0  0  0  0  0  0  0  0  0  0
    9.9275   -4.8001   18.0438 N   0  0  0  0  0  0  0  0  0  0  0  0
    8.5908   -5.7425   16.4412 C   0  0  0  0  0  0  0  0  0  0  0  0
   10.5993   -4.8981   21.6068 C   0  0  0  0  0  0  0  0  0  0  0  0
   10.4258   -3.0106   23.0998 C   0  0  0  0  0  0  0  0  0  0  0  0
   10.2148   -3.4364   25.4200 C   0  0  0  0  0  0  0  0  0  0  0  0
    9.7853   -1.1840   24.4927 C   0  0  0  0  0  0  0  0  0  0  0  0
    5.0276   -8.5227   17.5352 C   0  0  0  0  0  0  0  0  0  0  0  0
    9.8187   -2.0895   25.5800 C   0  0  0  0  0  0  0  0  0  0  0  0
    5.6473   -8.7216   15.3158 C   0  0  0  0  0  0  0  0  0  0  0  0
   10.7581   -3.1233   19.4720 N   0  0  0  0  0  0  0  0  0  0  0  0
    9.9571   -4.0573   16.8866 C   0  0  0  0  0  0  0  0  0  0  0  0
    7.6213   -6.5618   16.0087 C   0  0  0  0  0  0  0  0  0  0  0  0
   10.8583   -2.6527   20.7222 C   0  0  0  0  0  0  0  0  0  0  0  0
   10.6412   -3.5089   21.7936 C   0  0  0  0  0  0  0  0  0  0  0  0
   10.4972   -3.8968   24.1589 C   0  0  0  0  0  0  0  0  0  0  0  0
    5.9260   -8.2736   16.5517 C   0  0  0  0  0  0  0  0  0  0  0  0
    3.8816   -9.1166   17.2493 C   0  0  0  0  0  0  0  0  0  0  0  0
   10.1297   -1.6575   23.2324 C   0  0  0  0  0  0  0  0  0  0  0  0
    9.4684   -1.6929   26.7263 F   0  0  0  0  0  0  0  0  0  0  0  0
    7.7963   -7.7906   17.9837 C   0  0  0  0  0  0  0  0  0  0  0  0
   10.5884   -3.0725   16.7902 O   0  0  0  0  0  0  0  0  0  0  0  0
   10.4323   -5.3494   20.3516 C   0  0  0  0  0  0  0  0  0  0  0  0
    7.1156   -7.5454   16.8218 C   0  0  0  0  0  0  0  0  0  0  0  0
   10.3885   -4.4388   19.2773 C   0  0  0  0  0  0  0  0  0  0  0  0
    4.5160   -9.3822   15.0841 C   0  0  0  0  0  0  0  0  0  0  0  0
  1  3  4  0
  1 24  4  0
  2  6  4  0
  2 15  4  0
  3  5  4  0
  3  6  4  0
  4 21  4  0
  4 29  4  0
  5 15  4  0
  5 28  1  0
  6 16  4  0
  7 18  4  0
  7 26  4  0
  8 18  1  0
  8 19  4  0
  8 22  4  0
  9 12  4  0
  9 19  4  0
 10 12  4  0
 10 22  4  0
 11 20  4  0
 11 21  4  0
 12 23  1  0
 13 20  4  0
 13 29  4  0
 14 17  4  0
 14 28  4  0
 15 25  2  0
 16 27  4  0
 17 18  4  0
 20 27  1  0
 24 27  4  0
 26 28  4  0
M  END
$$$$

 Created by Python create_sdf_string function

 29 33  0  0  0  0  0  0  0  0999 V2000
    8.8270   -7.0288   18.4251 C   0  0  0  0  0  0  0  0  0  0  0  0
    9.1576   -4.6236   15.8860 O   0  0  0  0  0  0  0  0  0  0  0  0
    9.1509   -5.9108   17.7177 C   0  0  0  0  0  0  0  0  0  0  0  0
    3.6373   -9.5349   16.0582 N   0  0  0  0  0  0  0  0  0  0  0  0
    9.9275   -4.8001   18.0438 N   0  0  0  0  0  0  0  0  0  0  0  0
    8.5908   -5.7425   16.4412 C   0  0  0  0  0  0  0  0  0  0  0  0
   10.5993   -4.8981   21.6068 C   0  0  0  0  0  0  0  0  0  0  0  0
   10.4258   -3.0106   23.0998 C   0  0  0  0  0  0  0  0  0  0  0  0
   10.2148   -3.4364   25.4200 C   0  0  0  0  0  0  0  0  0  0  0  0
    9.7853   -1.1840   24.4927 C   0  0  0  0  0  0  0  0  0  0  0  0
    5.0276   -8.5227   17.5352 C   0  0  0  0  0  0  0  0  0  0  0  0
    9.8187   -2.0895   25.5800 C   0  0  0  0  0  0  0  0  0  0  0  0
    5.6473   -8.7216   15.3158 C   0  0  0  0  0  0  0  0  0  0  0  0
   10.7581   -3.1233   19.4720 N   0  0  0  0  0  0  0  0  0  0  0  0
    9.9571   -4.0573   16.8866 C   0  0  0  0  0  0  0  0  0  0  0  0
    7.6213   -6.5618   16.0087 C   0  0  0  0  0  0  0  0  0  0  0  0
   10.8583   -2.6527   20.7222 C   0  0  0  0  0  0  0  0  0  0  0  0
   10.6412   -3.5089   21.7936 C   0  0  0  0  0  0  0  0  0  0  0  0
   10.4972   -3.8968   24.1589 C   0  0  0  0  0  0  0  0  0  0  0  0
    5.9260   -8.2736   16.5517 C   0  0  0  0  0  0  0  0  0  0  0  0
    3.8816   -9.1166   17.2493 C   0  0  0  0  0  0  0  0  0  0  0  0
   10.1297   -1.6575   23.2324 C   0  0  0  0  0  0  0  0  0  0  0  0
    9.4684   -1.6929   26.7263 F   0  0  0  0  0  0  0  0  0  0  0  0
    7.7963   -7.7906   17.9837 C   0  0  0  0  0  0  0  0  0  0  0  0
   10.5884   -3.0725   16.7902 O   0  0  0  0  0  0  0  0  0  0  0  0
   10.4323   -5.3494   20.3516 C   0  0  0  0  0  0  0  0  0  0  0  0
    7.1156   -7.5454   16.8218 C   0  0  0  0  0  0  0  0  0  0  0  0
   10.3885   -4.4388   19.2773 C   0  0  0  0  0  0  0  0  0  0  0  0
    4.5160   -9.3822   15.0841 C   0  0  0  0  0  0  0  0  0  0  0  0
  1  3  4  0
  1 24  4  0
  2  6  4  0
  2 15  4  0
  3  5  4  0
  3  6  4  0
  4 21  4  0
  4 29  4  0
  5 15  4  0
  5 28  1  0
  6 16  4  0
  7 18  4  0
  7 26  4  0
  8 18  1  0
  8 19  4  0
  8 22  4  0
  9 12  4  0
  9 19  4  0
 10 12  4  0
 10 22  4  0
 11 20  4  0
 11 21  4  0
 12 23  1  0
 13 20  4  0
 13 29  4  0
 14 17  4  0
 14 28  4  0
 15 25  2  0
 16 27  4  0
 17 18  4  0
 20 27  1  0
 24 27  4  0
 26 28  4  0
M  END
$$$$

 Created by Python create_sdf_string function

 29 33  0  0  0  0  0  0  0  0999 V2000
    8.8270   -7.0288   18.4251 C   0  0  0  0  0  0  0  0  0  0  0  0
    9.1576   -4.6236   15.8860 O   0  0  0  0  0  0  0  0  0  0  0  0
    9.1509   -5.9108   17.7177 C   0  0  0  0  0  0  0  0  0  0  0  0
    3.6373   -9.5349   16.0582 N   0  0  0  0  0  0  0  0  0  0  0  0
    9.9275   -4.8001   18.0438 N   0  0  0  0  0  0  0  0  0  0  0  0
    8.5908   -5.7425   16.4412 C   0  0  0  0  0  0  0  0  0  0  0  0
   10.5993   -4.8981   21.6068 C   0  0  0  0  0  0  0  0  0  0  0  0
   10.4258   -3.0106   23.0998 C   0  0  0  0  0  0  0  0  0  0  0  0
   10.2148   -3.4364   25.4200 C   0  0  0  0  0  0  0  0  0  0  0  0
    9.7853   -1.1840   24.4927 C   0  0  0  0  0  0  0  0  0  0  0  0
    5.0276   -8.5227   17.5352 C   0  0  0  0  0  0  0  0  0  0  0  0
    9.8187   -2.0895   25.5800 C   0  0  0  0  0  0  0  0  0  0  0  0
    5.6473   -8.7216   15.3158 C   0  0  0  0  0  0  0  0  0  0  0  0
   10.7581   -3.1233   19.4720 N   0  0  0  0  0  0  0  0  0  0  0  0
    9.9571   -4.0573   16.8866 C   0  0  0  0  0  0  0  0  0  0  0  0
    7.6213   -6.5618   16.0087 C   0  0  0  0  0  0  0  0  0  0  0  0
   10.8583   -2.6527   20.7222 C   0  0  0  0  0  0  0  0  0  0  0  0
   10.6412   -3.5089   21.7936 C   0  0  0  0  0  0  0  0  0  0  0  0
   10.4972   -3.8968   24.1589 C   0  0  0  0  0  0  0  0  0  0  0  0
    5.9260   -8.2736   16.5517 C   0  0  0  0  0  0  0  0  0  0  0  0
    3.8816   -9.1166   17.2493 C   0  0  0  0  0  0  0  0  0  0  0  0
   10.1297   -1.6575   23.2324 C   0  0  0  0  0  0  0  0  0  0  0  0
    9.4684   -1.6929   26.7263 F   0  0  0  0  0  0  0  0  0  0  0  0
    7.7963   -7.7906   17.9837 C   0  0  0  0  0  0  0  0  0  0  0  0
   10.5884   -3.0725   16.7902 O   0  0  0  0  0  0  0  0  0  0  0  0
   10.4323   -5.3494   20.3516 C   0  0  0  0  0  0  0  0  0  0  0  0
    7.1156   -7.5454   16.8218 C   0  0  0  0  0  0  0  0  0  0  0  0
   10.3885   -4.4388   19.2773 C   0  0  0  0  0  0  0  0  0  0  0  0
    4.5160   -9.3822   15.0841 C   0  0  0  0  0  0  0  0  0  0  0  0
  1  3  4  0
  1 24  4  0
  2  6  4  0
  2 15  4  0
  3  5  4  0
  3  6  4  0
  4 21  4  0
  4 29  4  0
  5 15  4  0
  5 28  1  0
  6 16  4  0
  7 18  4  0
  7 26  4  0
  8 18  1  0
  8 19  4  0
  8 22  4  0
  9 12  4  0
  9 19  4  0
 10 12  4  0
 10 22  4  0
 11 20  4  0
 11 21  4  0
 12 23  1  0
 13 20  4  0
 13 29  4  0
 14 17  4  0
 14 28  4  0
 15 25  2  0
 16 27  4  0
 17 18  4  0
 20 27  1  0
 24 27  4  0
 26 28  4  0
M  END
$$$$

 Created by Python create_sdf_string function

 29 33  0  0  0  0  0  0  0  0999 V2000
    8.8270   -7.0288   18.4251 C   0  0  0  0  0  0  0  0  0  0  0  0
    9.1576   -4.6236   15.8860 O   0  0  0  0  0  0  0  0  0  0  0  0
    9.1509   -5.9108   17.7177 C   0  0  0  0  0  0  0  0  0  0  0  0
    3.6373   -9.5349   16.0582 N   0  0  0  0  0  0  0  0  0  0  0  0
    9.9275   -4.8001   18.0438 N   0  0  0  0  0  0  0  0  0  0  0  0
    8.5908   -5.7425   16.4412 C   0  0  0  0  0  0  0  0  0  0  0  0
   10.5993   -4.8981   21.6068 C   0  0  0  0  0  0  0  0  0  0  0  0
   10.4258   -3.0106   23.0998 C   0  0  0  0  0  0  0  0  0  0  0  0
   10.2148   -3.4364   25.4200 C   0  0  0  0  0  0  0  0  0  0  0  0
    9.7853   -1.1840   24.4927 C   0  0  0  0  0  0  0  0  0  0  0  0
    5.0276   -8.5227   17.5352 C   0  0  0  0  0  0  0  0  0  0  0  0
    9.8187   -2.0895   25.5800 C   0  0  0  0  0  0  0  0  0  0  0  0
    5.6473   -8.7216   15.3158 C   0  0  0  0  0  0  0  0  0  0  0  0
   10.7581   -3.1233   19.4720 N   0  0  0  0  0  0  0  0  0  0  0  0
    9.9571   -4.0573   16.8866 C   0  0  0  0  0  0  0  0  0  0  0  0
    7.6213   -6.5618   16.0087 C   0  0  0  0  0  0  0  0  0  0  0  0
   10.8583   -2.6527   20.7222 C   0  0  0  0  0  0  0  0  0  0  0  0
   10.6412   -3.5089   21.7936 C   0  0  0  0  0  0  0  0  0  0  0  0
   10.4972   -3.8968   24.1589 C   0  0  0  0  0  0  0  0  0  0  0  0
    5.9260   -8.2736   16.5517 C   0  0  0  0  0  0  0  0  0  0  0  0
    3.8816   -9.1166   17.2493 C   0  0  0  0  0  0  0  0  0  0  0  0
   10.1297   -1.6575   23.2324 C   0  0  0  0  0  0  0  0  0  0  0  0
    9.4684   -1.6929   26.7263 F   0  0  0  0  0  0  0  0  0  0  0  0
    7.7963   -7.7906   17.9837 C   0  0  0  0  0  0  0  0  0  0  0  0
   10.5884   -3.0725   16.7902 O   0  0  0  0  0  0  0  0  0  0  0  0
   10.4323   -5.3494   20.3516 C   0  0  0  0  0  0  0  0  0  0  0  0
    7.1156   -7.5454   16.8218 C   0  0  0  0  0  0  0  0  0  0  0  0
   10.3885   -4.4388   19.2773 C   0  0  0  0  0  0  0  0  0  0  0  0
    4.5160   -9.3822   15.0841 C   0  0  0  0  0  0  0  0  0  0  0  0
  1  3  4  0
  1 24  4  0
  2  6  4  0
  2 15  4  0
  3  5  4  0
  3  6  4  0
  4 21  4  0
  4 29  4  0
  5 15  4  0
  5 28  1  0
  6 16  4  0
  7 18  4  0
  7 26  4  0
  8 18  1  0
  8 19  4  0
  8 22  4  0
  9 12  4  0
  9 19  4  0
 10 12  4  0
 10 22  4  0
 11 20  4  0
 11 21  4  0
 12 23  1  0
 13 20  4  0
 13 29  4  0
 14 17  4  0
 14 28  4  0
 15 25  2  0
 16 27  4  0
 17 18  4  0
 20 27  1  0
 24 27  4  0
 26 28  4  0
M  END
$$$$

 Created by Python create_sdf_string function

 29 33  0  0  0  0  0  0  0  0999 V2000
    8.8270   -7.0288   18.4251 C   0  0  0  0  0  0  0  0  0  0  0  0
    9.1576   -4.6236   15.8860 O   0  0  0  0  0  0  0  0  0  0  0  0
    9.1509   -5.9108   17.7177 C   0  0  0  0  0  0  0  0  0  0  0  0
    3.6373   -9.5349   16.0582 N   0  0  0  0  0  0  0  0  0  0  0  0
    9.9275   -4.8001   18.0438 N   0  0  0  0  0  0  0  0  0  0  0  0
    8.5908   -5.7425   16.4412 C   0  0  0  0  0  0  0  0  0  0  0  0
   10.5993   -4.8981   21.6068 C   0  0  0  0  0  0  0  0  0  0  0  0
   10.4258   -3.0106   23.0998 C   0  0  0  0  0  0  0  0  0  0  0  0
   10.2148   -3.4364   25.4200 C   0  0  0  0  0  0  0  0  0  0  0  0
    9.7853   -1.1840   24.4927 C   0  0  0  0  0  0  0  0  0  0  0  0
    5.0276   -8.5227   17.5352 C   0  0  0  0  0  0  0  0  0  0  0  0
    9.8187   -2.0895   25.5800 C   0  0  0  0  0  0  0  0  0  0  0  0
    5.6473   -8.7216   15.3158 C   0  0  0  0  0  0  0  0  0  0  0  0
   10.7581   -3.1233   19.4720 N   0  0  0  0  0  0  0  0  0  0  0  0
    9.9571   -4.0573   16.8866 C   0  0  0  0  0  0  0  0  0  0  0  0
    7.6213   -6.5618   16.0087 C   0  0  0  0  0  0  0  0  0  0  0  0
   10.8583   -2.6527   20.7222 C   0  0  0  0  0  0  0  0  0  0  0  0
   10.6412   -3.5089   21.7936 C   0  0  0  0  0  0  0  0  0  0  0  0
   10.4972   -3.8968   24.1589 C   0  0  0  0  0  0  0  0  0  0  0  0
    5.9260   -8.2736   16.5517 C   0  0  0  0  0  0  0  0  0  0  0  0
    3.8816   -9.1166   17.2493 C   0  0  0  0  0  0  0  0  0  0  0  0
   10.1297   -1.6575   23.2324 C   0  0  0  0  0  0  0  0  0  0  0  0
    9.4684   -1.6929   26.7263 F   0  0  0  0  0  0  0  0  0  0  0  0
    7.7963   -7.7906   17.9837 C   0  0  0  0  0  0  0  0  0  0  0  0
   10.5884   -3.0725   16.7902 O   0  0  0  0  0  0  0  0  0  0  0  0
   10.4323   -5.3494   20.3516 C   0  0  0  0  0  0  0  0  0  0  0  0
    7.1156   -7.5454   16.8218 C   0  0  0  0  0  0  0  0  0  0  0  0
   10.3885   -4.4388   19.2773 C   0  0  0  0  0  0  0  0  0  0  0  0
    4.5160   -9.3822   15.0841 C   0  0  0  0  0  0  0  0  0  0  0  0
  1  3  4  0
  1 24  4  0
  2  6  4  0
  2 15  4  0
  3  5  4  0
  3  6  4  0
  4 21  4  0
  4 29  4  0
  5 15  4  0
  5 28  1  0
  6 16  4  0
  7 18  4  0
  7 26  4  0
  8 18  1  0
  8 19  4  0
  8 22  4  0
  9 12  4  0
  9 19  4  0
 10 12  4  0
 10 22  4  0
 11 20  4  0
 11 21  4  0
 12 23  1  0
 13 20  4  0
 13 29  4  0
 14 17  4  0
 14 28  4  0
 15 25  2  0
 16 27  4  0
 17 18  4  0
 20 27  1  0
 24 27  4  0
 26 28  4  0
M  END
$$$$

 Created by Python create_sdf_string function

 29 33  0  0  0  0  0  0  0  0999 V2000
    8.8270   -7.0288   18.4251 C   0  0  0  0  0  0  0  0  0  0  0  0
    9.1576   -4.6236   15.8860 O   0  0  0  0  0  0  0  0  0  0  0  0
    9.1509   -5.9108   17.7177 C   0  0  0  0  0  0  0  0  0  0  0  0
    3.6373   -9.5349   16.0582 N   0  0  0  0  0  0  0  0  0  0  0  0
    9.9275   -4.8001   18.0438 N   0  0  0  0  0  0  0  0  0  0  0  0
    8.5908   -5.7425   16.4412 C   0  0  0  0  0  0  0  0  0  0  0  0
   10.5993   -4.8981   21.6068 C   0  0  0  0  0  0  0  0  0  0  0  0
   10.4258   -3.0106   23.0998 C   0  0  0  0  0  0  0  0  0  0  0  0
   10.2148   -3.4364   25.4200 C   0  0  0  0  0  0  0  0  0  0  0  0
    9.7853   -1.1840   24.4927 C   0  0  0  0  0  0  0  0  0  0  0  0
    5.0276   -8.5227   17.5352 C   0  0  0  0  0  0  0  0  0  0  0  0
    9.8187   -2.0895   25.5800 C   0  0  0  0  0  0  0  0  0  0  0  0
    5.6473   -8.7216   15.3158 C   0  0  0  0  0  0  0  0  0  0  0  0
   10.7581   -3.1233   19.4720 N   0  0  0  0  0  0  0  0  0  0  0  0
    9.9571   -4.0573   16.8866 C   0  0  0  0  0  0  0  0  0  0  0  0
    7.6213   -6.5618   16.0087 C   0  0  0  0  0  0  0  0  0  0  0  0
   10.8583   -2.6527   20.7222 C   0  0  0  0  0  0  0  0  0  0  0  0
   10.6412   -3.5089   21.7936 C   0  0  0  0  0  0  0  0  0  0  0  0
   10.4972   -3.8968   24.1589 C   0  0  0  0  0  0  0  0  0  0  0  0
    5.9260   -8.2736   16.5517 C   0  0  0  0  0  0  0  0  0  0  0  0
    3.8816   -9.1166   17.2493 C   0  0  0  0  0  0  0  0  0  0  0  0
   10.1297   -1.6575   23.2324 C   0  0  0  0  0  0  0  0  0  0  0  0
    9.4684   -1.6929   26.7263 F   0  0  0  0  0  0  0  0  0  0  0  0
    7.7963   -7.7906   17.9837 C   0  0  0  0  0  0  0  0  0  0  0  0
   10.5884   -3.0725   16.7902 O   0  0  0  0  0  0  0  0  0  0  0  0
   10.4323   -5.3494   20.3516 C   0  0  0  0  0  0  0  0  0  0  0  0
    7.1156   -7.5454   16.8218 C   0  0  0  0  0  0  0  0  0  0  0  0
   10.3885   -4.4388   19.2773 C   0  0  0  0  0  0  0  0  0  0  0  0
    4.5160   -9.3822   15.0841 C   0  0  0  0  0  0  0  0  0  0  0  0
  1  3  4  0
  1 24  4  0
  2  6  4  0
  2 15  4  0
  3  5  4  0
  3  6  4  0
  4 21  4  0
  4 29  4  0
  5 15  4  0
  5 28  1  0
  6 16  4  0
  7 18  4  0
  7 26  4  0
  8 18  1  0
  8 19  4  0
  8 22  4  0
  9 12  4  0
  9 19  4  0
 10 12  4  0
 10 22  4  0
 11 20  4  0
 11 21  4  0
 12 23  1  0
 13 20  4  0
 13 29  4  0
 14 17  4  0
 14 28  4  0
 15 25  2  0
 16 27  4  0
 17 18  4  0
 20 27  1  0
 24 27  4  0
 26 28  4  0
M  END
$$$$

 Created by Python create_sdf_string function

 29 33  0  0  0  0  0  0  0  0999 V2000
    8.8270   -7.0288   18.4251 C   0  0  0  0  0  0  0  0  0  0  0  0
    9.1576   -4.6236   15.8860 O   0  0  0  0  0  0  0  0  0  0  0  0
    9.1509   -5.9108   17.7177 C   0  0  0  0  0  0  0  0  0  0  0  0
    3.6373   -9.5349   16.0582 N   0  0  0  0  0  0  0  0  0  0  0  0
    9.9275   -4.8001   18.0438 N   0  0  0  0  0  0  0  0  0  0  0  0
    8.5908   -5.7425   16.4412 C   0  0  0  0  0  0  0  0  0  0  0  0
   10.5993   -4.8981   21.6068 C   0  0  0  0  0  0  0  0  0  0  0  0
   10.4258   -3.0106   23.0998 C   0  0  0  0  0  0  0  0  0  0  0  0
   10.2148   -3.4364   25.4200 C   0  0  0  0  0  0  0  0  0  0  0  0
    9.7853   -1.1840   24.4927 C   0  0  0  0  0  0  0  0  0  0  0  0
    5.0276   -8.5227   17.5352 C   0  0  0  0  0  0  0  0  0  0  0  0
    9.8187   -2.0895   25.5800 C   0  0  0  0  0  0  0  0  0  0  0  0
    5.6473   -8.7216   15.3158 C   0  0  0  0  0  0  0  0  0  0  0  0
   10.7581   -3.1233   19.4720 N   0  0  0  0  0  0  0  0  0  0  0  0
    9.9571   -4.0573   16.8866 C   0  0  0  0  0  0  0  0  0  0  0  0
    7.6213   -6.5618   16.0087 C   0  0  0  0  0  0  0  0  0  0  0  0
   10.8583   -2.6527   20.7222 C   0  0  0  0  0  0  0  0  0  0  0  0
   10.6412   -3.5089   21.7936 C   0  0  0  0  0  0  0  0  0  0  0  0
   10.4972   -3.8968   24.1589 C   0  0  0  0  0  0  0  0  0  0  0  0
    5.9260   -8.2736   16.5517 C   0  0  0  0  0  0  0  0  0  0  0  0
    3.8816   -9.1166   17.2493 C   0  0  0  0  0  0  0  0  0  0  0  0
   10.1297   -1.6575   23.2324 C   0  0  0  0  0  0  0  0  0  0  0  0
    9.4684   -1.6929   26.7263 F   0  0  0  0  0  0  0  0  0  0  0  0
    7.7963   -7.7906   17.9837 C   0  0  0  0  0  0  0  0  0  0  0  0
   10.5884   -3.0725   16.7902 O   0  0  0  0  0  0  0  0  0  0  0  0
   10.4323   -5.3494   20.3516 C   0  0  0  0  0  0  0  0  0  0  0  0
    7.1156   -7.5454   16.8218 C   0  0  0  0  0  0  0  0  0  0  0  0
   10.3885   -4.4388   19.2773 C   0  0  0  0  0  0  0  0  0  0  0  0
    4.5160   -9.3822   15.0841 C   0  0  0  0  0  0  0  0  0  0  0  0
  1  3  4  0
  1 24  4  0
  2  6  4  0
  2 15  4  0
  3  5  4  0
  3  6  4  0
  4 21  4  0
  4 29  4  0
  5 15  4  0
  5 28  1  0
  6 16  4  0
  7 18  4  0
  7 26  4  0
  8 18  1  0
  8 19  4  0
  8 22  4  0
  9 12  4  0
  9 19  4  0
 10 12  4  0
 10 22  4  0
 11 20  4  0
 11 21  4  0
 12 23  1  0
 13 20  4  0
 13 29  4  0
 14 17  4  0
 14 28  4  0
 15 25  2  0
 16 27  4  0
 17 18  4  0
 20 27  1  0
 24 27  4  0
 26 28  4  0
M  END
$$$$

 Created by Python create_sdf_string function

 29 33  0  0  0  0  0  0  0  0999 V2000
    8.8270   -7.0288   18.4251 C   0  0  0  0  0  0  0  0  0  0  0  0
    9.1576   -4.6236   15.8860 O   0  0  0  0  0  0  0  0  0  0  0  0
    9.1509   -5.9108   17.7177 C   0  0  0  0  0  0  0  0  0  0  0  0
    3.6373   -9.5349   16.0582 N   0  0  0  0  0  0  0  0  0  0  0  0
    9.9275   -4.8001   18.0438 N   0  0  0  0  0  0  0  0  0  0  0  0
    8.5908   -5.7425   16.4412 C   0  0  0  0  0  0  0  0  0  0  0  0
   10.5993   -4.8981   21.6068 C   0  0  0  0  0  0  0  0  0  0  0  0
   10.4258   -3.0106   23.0998 C   0  0  0  0  0  0  0  0  0  0  0  0
   10.2148   -3.4364   25.4200 C   0  0  0  0  0  0  0  0  0  0  0  0
    9.7853   -1.1840   24.4927 C   0  0  0  0  0  0  0  0  0  0  0  0
    5.0276   -8.5227   17.5352 C   0  0  0  0  0  0  0  0  0  0  0  0
    9.8187   -2.0895   25.5800 C   0  0  0  0  0  0  0  0  0  0  0  0
    5.6473   -8.7216   15.3158 C   0  0  0  0  0  0  0  0  0  0  0  0
   10.7581   -3.1233   19.4720 N   0  0  0  0  0  0  0  0  0  0  0  0
    9.9571   -4.0573   16.8866 C   0  0  0  0  0  0  0  0  0  0  0  0
    7.6213   -6.5618   16.0087 C   0  0  0  0  0  0  0  0  0  0  0  0
   10.8583   -2.6527   20.7222 C   0  0  0  0  0  0  0  0  0  0  0  0
   10.6412   -3.5089   21.7936 C   0  0  0  0  0  0  0  0  0  0  0  0
   10.4972   -3.8968   24.1589 C   0  0  0  0  0  0  0  0  0  0  0  0
    5.9260   -8.2736   16.5517 C   0  0  0  0  0  0  0  0  0  0  0  0
    3.8816   -9.1166   17.2493 C   0  0  0  0  0  0  0  0  0  0  0  0
   10.1297   -1.6575   23.2324 C   0  0  0  0  0  0  0  0  0  0  0  0
    9.4684   -1.6929   26.7263 F   0  0  0  0  0  0  0  0  0  0  0  0
    7.7963   -7.7906   17.9837 C   0  0  0  0  0  0  0  0  0  0  0  0
   10.5884   -3.0725   16.7902 O   0  0  0  0  0  0  0  0  0  0  0  0
   10.4323   -5.3494   20.3516 C   0  0  0  0  0  0  0  0  0  0  0  0
    7.1156   -7.5454   16.8218 C   0  0  0  0  0  0  0  0  0  0  0  0
   10.3885   -4.4388   19.2773 C   0  0  0  0  0  0  0  0  0  0  0  0
    4.5160   -9.3822   15.0841 C   0  0  0  0  0  0  0  0  0  0  0  0
  1  3  4  0
  1 24  4  0
  2  6  4  0
  2 15  4  0
  3  5  4  0
  3  6  4  0
  4 21  4  0
  4 29  4  0
  5 15  4  0
  5 28  1  0
  6 16  4  0
  7 18  4  0
  7 26  4  0
  8 18  1  0
  8 19  4  0
  8 22  4  0
  9 12  4  0
  9 19  4  0
 10 12  4  0
 10 22  4  0
 11 20  4  0
 11 21  4  0
 12 23  1  0
 13 20  4  0
 13 29  4  0
 14 17  4  0
 14 28  4  0
 15 25  2  0
 16 27  4  0
 17 18  4  0
 20 27  1  0
 24 27  4  0
 26 28  4  0
M  END
$$$$

 Created by Python create_sdf_string function

 29 33  0  0  0  0  0  0  0  0999 V2000
    8.8270   -7.0288   18.4251 C   0  0  0  0  0  0  0  0  0  0  0  0
    9.1576   -4.6236   15.8860 O   0  0  0  0  0  0  0  0  0  0  0  0
    9.1509   -5.9108   17.7177 C   0  0  0  0  0  0  0  0  0  0  0  0
    3.6373   -9.5349   16.0582 N   0  0  0  0  0  0  0  0  0  0  0  0
    9.9275   -4.8001   18.0438 N   0  0  0  0  0  0  0  0  0  0  0  0
    8.5908   -5.7425   16.4412 C   0  0  0  0  0  0  0  0  0  0  0  0
   10.5993   -4.8981   21.6068 C   0  0  0  0  0  0  0  0  0  0  0  0
   10.4258   -3.0106   23.0998 C   0  0  0  0  0  0  0  0  0  0  0  0
   10.2148   -3.4364   25.4200 C   0  0  0  0  0  0  0  0  0  0  0  0
    9.7853   -1.1840   24.4927 C   0  0  0  0  0  0  0  0  0  0  0  0
    5.0276   -8.5227   17.5352 C   0  0  0  0  0  0  0  0  0  0  0  0
    9.8187   -2.0895   25.5800 C   0  0  0  0  0  0  0  0  0  0  0  0
    5.6473   -8.7216   15.3158 C   0  0  0  0  0  0  0  0  0  0  0  0
   10.7581   -3.1233   19.4720 N   0  0  0  0  0  0  0  0  0  0  0  0
    9.9571   -4.0573   16.8866 C   0  0  0  0  0  0  0  0  0  0  0  0
    7.6213   -6.5618   16.0087 C   0  0  0  0  0  0  0  0  0  0  0  0
   10.8583   -2.6527   20.7222 C   0  0  0  0  0  0  0  0  0  0  0  0
   10.6412   -3.5089   21.7936 C   0  0  0  0  0  0  0  0  0  0  0  0
   10.4972   -3.8968   24.1589 C   0  0  0  0  0  0  0  0  0  0  0  0
    5.9260   -8.2736   16.5517 C   0  0  0  0  0  0  0  0  0  0  0  0
    3.8816   -9.1166   17.2493 C   0  0  0  0  0  0  0  0  0  0  0  0
   10.1297   -1.6575   23.2324 C   0  0  0  0  0  0  0  0  0  0  0  0
    9.4684   -1.6929   26.7263 F   0  0  0  0  0  0  0  0  0  0  0  0
    7.7963   -7.7906   17.9837 C   0  0  0  0  0  0  0  0  0  0  0  0
   10.5884   -3.0725   16.7902 O   0  0  0  0  0  0  0  0  0  0  0  0
   10.4323   -5.3494   20.3516 C   0  0  0  0  0  0  0  0  0  0  0  0
    7.1156   -7.5454   16.8218 C   0  0  0  0  0  0  0  0  0  0  0  0
   10.3885   -4.4388   19.2773 C   0  0  0  0  0  0  0  0  0  0  0  0
    4.5160   -9.3822   15.0841 C   0  0  0  0  0  0  0  0  0  0  0  0
  1  3  4  0
  1 24  4  0
  2  6  4  0
  2 15  4  0
  3  5  4  0
  3  6  4  0
  4 21  4  0
  4 29  4  0
  5 15  4  0
  5 28  1  0
  6 16  4  0
  7 18  4  0
  7 26  4  0
  8 18  1  0
  8 19  4  0
  8 22  4  0
  9 12  4  0
  9 19  4  0
 10 12  4  0
 10 22  4  0
 11 20  4  0
 11 21  4  0
 12 23  1  0
 13 20  4  0
 13 29  4  0
 14 17  4  0
 14 28  4  0
 15 25  2  0
 16 27  4  0
 17 18  4  0
 20 27  1  0
 24 27  4  0
 26 28  4  0
M  END
$$$$

 Created by Python create_sdf_string function

 29 33  0  0  0  0  0  0  0  0999 V2000
    8.8270   -7.0288   18.4251 C   0  0  0  0  0  0  0  0  0  0  0  0
    9.1576   -4.6236   15.8860 O   0  0  0  0  0  0  0  0  0  0  0  0
    9.1509   -5.9108   17.7177 C   0  0  0  0  0  0  0  0  0  0  0  0
    3.6373   -9.5349   16.0582 N   0  0  0  0  0  0  0  0  0  0  0  0
    9.9275   -4.8001   18.0438 N   0  0  0  0  0  0  0  0  0  0  0  0
    8.5908   -5.7425   16.4412 C   0  0  0  0  0  0  0  0  0  0  0  0
   10.5993   -4.8981   21.6068 C   0  0  0  0  0  0  0  0  0  0  0  0
   10.4258   -3.0106   23.0998 C   0  0  0  0  0  0  0  0  0  0  0  0
   10.2148   -3.4364   25.4200 C   0  0  0  0  0  0  0  0  0  0  0  0
    9.7853   -1.1840   24.4927 C   0  0  0  0  0  0  0  0  0  0  0  0
    5.0276   -8.5227   17.5352 C   0  0  0  0  0  0  0  0  0  0  0  0
    9.8187   -2.0895   25.5800 C   0  0  0  0  0  0  0  0  0  0  0  0
    5.6473   -8.7216   15.3158 C   0  0  0  0  0  0  0  0  0  0  0  0
   10.7581   -3.1233   19.4720 N   0  0  0  0  0  0  0  0  0  0  0  0
    9.9571   -4.0573   16.8866 C   0  0  0  0  0  0  0  0  0  0  0  0
    7.6213   -6.5618   16.0087 C   0  0  0  0  0  0  0  0  0  0  0  0
   10.8583   -2.6527   20.7222 C   0  0  0  0  0  0  0  0  0  0  0  0
   10.6412   -3.5089   21.7936 C   0  0  0  0  0  0  0  0  0  0  0  0
   10.4972   -3.8968   24.1589 C   0  0  0  0  0  0  0  0  0  0  0  0
    5.9260   -8.2736   16.5517 C   0  0  0  0  0  0  0  0  0  0  0  0
    3.8816   -9.1166   17.2493 C   0  0  0  0  0  0  0  0  0  0  0  0
   10.1297   -1.6575   23.2324 C   0  0  0  0  0  0  0  0  0  0  0  0
    9.4684   -1.6929   26.7263 F   0  0  0  0  0  0  0  0  0  0  0  0
    7.7963   -7.7906   17.9837 C   0  0  0  0  0  0  0  0  0  0  0  0
   10.5884   -3.0725   16.7902 O   0  0  0  0  0  0  0  0  0  0  0  0
   10.4323   -5.3494   20.3516 C   0  0  0  0  0  0  0  0  0  0  0  0
    7.1156   -7.5454   16.8218 C   0  0  0  0  0  0  0  0  0  0  0  0
   10.3885   -4.4388   19.2773 C   0  0  0  0  0  0  0  0  0  0  0  0
    4.5160   -9.3822   15.0841 C   0  0  0  0  0  0  0  0  0  0  0  0
  1  3  4  0
  1 24  4  0
  2  6  4  0
  2 15  4  0
  3  5  4  0
  3  6  4  0
  4 21  4  0
  4 29  4  0
  5 15  4  0
  5 28  1  0
  6 16  4  0
  7 18  4  0
  7 26  4  0
  8 18  1  0
  8 19  4  0
  8 22  4  0
  9 12  4  0
  9 19  4  0
 10 12  4  0
 10 22  4  0
 11 20  4  0
 11 21  4  0
 12 23  1  0
 13 20  4  0
 13 29  4  0
 14 17  4  0
 14 28  4  0
 15 25  2  0
 16 27  4  0
 17 18  4  0
 20 27  1  0
 24 27  4  0
 26 28  4  0
M  END
$$$$

 Created by Python create_sdf_string function

 29 33  0  0  0  0  0  0  0  0999 V2000
    8.8270   -7.0288   18.4251 C   0  0  0  0  0  0  0  0  0  0  0  0
    9.1576   -4.6236   15.8860 O   0  0  0  0  0  0  0  0  0  0  0  0
    9.1509   -5.9108   17.7177 C   0  0  0  0  0  0  0  0  0  0  0  0
    3.6373   -9.5349   16.0582 N   0  0  0  0  0  0  0  0  0  0  0  0
    9.9275   -4.8001   18.0438 N   0  0  0  0  0  0  0  0  0  0  0  0
    8.5908   -5.7425   16.4412 C   0  0  0  0  0  0  0  0  0  0  0  0
   10.5993   -4.8981   21.6068 C   0  0  0  0  0  0  0  0  0  0  0  0
   10.4258   -3.0106   23.0998 C   0  0  0  0  0  0  0  0  0  0  0  0
   10.2148   -3.4364   25.4200 C   0  0  0  0  0  0  0  0  0  0  0  0
    9.7853   -1.1840   24.4927 C   0  0  0  0  0  0  0  0  0  0  0  0
    5.0276   -8.5227   17.5352 C   0  0  0  0  0  0  0  0  0  0  0  0
    9.8187   -2.0895   25.5800 C   0  0  0  0  0  0  0  0  0  0  0  0
    5.6473   -8.7216   15.3158 C   0  0  0  0  0  0  0  0  0  0  0  0
   10.7581   -3.1233   19.4720 N   0  0  0  0  0  0  0  0  0  0  0  0
    9.9571   -4.0573   16.8866 C   0  0  0  0  0  0  0  0  0  0  0  0
    7.6213   -6.5618   16.0087 C   0  0  0  0  0  0  0  0  0  0  0  0
   10.8583   -2.6527   20.7222 C   0  0  0  0  0  0  0  0  0  0  0  0
   10.6412   -3.5089   21.7936 C   0  0  0  0  0  0  0  0  0  0  0  0
   10.4972   -3.8968   24.1589 C   0  0  0  0  0  0  0  0  0  0  0  0
    5.9260   -8.2736   16.5517 C   0  0  0  0  0  0  0  0  0  0  0  0
    3.8816   -9.1166   17.2493 C   0  0  0  0  0  0  0  0  0  0  0  0
   10.1297   -1.6575   23.2324 C   0  0  0  0  0  0  0  0  0  0  0  0
    9.4684   -1.6929   26.7263 F   0  0  0  0  0  0  0  0  0  0  0  0
    7.7963   -7.7906   17.9837 C   0  0  0  0  0  0  0  0  0  0  0  0
   10.5884   -3.0725   16.7902 O   0  0  0  0  0  0  0  0  0  0  0  0
   10.4323   -5.3494   20.3516 C   0  0  0  0  0  0  0  0  0  0  0  0
    7.1156   -7.5454   16.8218 C   0  0  0  0  0  0  0  0  0  0  0  0
   10.3885   -4.4388   19.2773 C   0  0  0  0  0  0  0  0  0  0  0  0
    4.5160   -9.3822   15.0841 C   0  0  0  0  0  0  0  0  0  0  0  0
  1  3  4  0
  1 24  4  0
  2  6  4  0
  2 15  4  0
  3  5  4  0
  3  6  4  0
  4 21  4  0
  4 29  4  0
  5 15  4  0
  5 28  1  0
  6 16  4  0
  7 18  4  0
  7 26  4  0
  8 18  1  0
  8 19  4  0
  8 22  4  0
  9 12  4  0
  9 19  4  0
 10 12  4  0
 10 22  4  0
 11 20  4  0
 11 21  4  0
 12 23  1  0
 13 20  4  0
 13 29  4  0
 14 17  4  0
 14 28  4  0
 15 25  2  0
 16 27  4  0
 17 18  4  0
 20 27  1  0
 24 27  4  0
 26 28  4  0
M  END
$$$$

 Created by Python create_sdf_string function

 29 33  0  0  0  0  0  0  0  0999 V2000
    8.8270   -7.0288   18.4251 C   0  0  0  0  0  0  0  0  0  0  0  0
    9.1576   -4.6236   15.8860 O   0  0  0  0  0  0  0  0  0  0  0  0
    9.1509   -5.9108   17.7177 C   0  0  0  0  0  0  0  0  0  0  0  0
    3.6373   -9.5349   16.0582 N   0  0  0  0  0  0  0  0  0  0  0  0
    9.9275   -4.8001   18.0438 N   0  0  0  0  0  0  0  0  0  0  0  0
    8.5908   -5.7425   16.4412 C   0  0  0  0  0  0  0  0  0  0  0  0
   10.5993   -4.8981   21.6068 C   0  0  0  0  0  0  0  0  0  0  0  0
   10.4258   -3.0106   23.0998 C   0  0  0  0  0  0  0  0  0  0  0  0
   10.2148   -3.4364   25.4200 C   0  0  0  0  0  0  0  0  0  0  0  0
    9.7853   -1.1840   24.4927 C   0  0  0  0  0  0  0  0  0  0  0  0
    5.0276   -8.5227   17.5352 C   0  0  0  0  0  0  0  0  0  0  0  0
    9.8187   -2.0895   25.5800 C   0  0  0  0  0  0  0  0  0  0  0  0
    5.6473   -8.7216   15.3158 C   0  0  0  0  0  0  0  0  0  0  0  0
   10.7581   -3.1233   19.4720 N   0  0  0  0  0  0  0  0  0  0  0  0
    9.9571   -4.0573   16.8866 C   0  0  0  0  0  0  0  0  0  0  0  0
    7.6213   -6.5618   16.0087 C   0  0  0  0  0  0  0  0  0  0  0  0
   10.8583   -2.6527   20.7222 C   0  0  0  0  0  0  0  0  0  0  0  0
   10.6412   -3.5089   21.7936 C   0  0  0  0  0  0  0  0  0  0  0  0
   10.4972   -3.8968   24.1589 C   0  0  0  0  0  0  0  0  0  0  0  0
    5.9260   -8.2736   16.5517 C   0  0  0  0  0  0  0  0  0  0  0  0
    3.8816   -9.1166   17.2493 C   0  0  0  0  0  0  0  0  0  0  0  0
   10.1297   -1.6575   23.2324 C   0  0  0  0  0  0  0  0  0  0  0  0
    9.4684   -1.6929   26.7263 F   0  0  0  0  0  0  0  0  0  0  0  0
    7.7963   -7.7906   17.9837 C   0  0  0  0  0  0  0  0  0  0  0  0
   10.5884   -3.0725   16.7902 O   0  0  0  0  0  0  0  0  0  0  0  0
   10.4323   -5.3494   20.3516 C   0  0  0  0  0  0  0  0  0  0  0  0
    7.1156   -7.5454   16.8218 C   0  0  0  0  0  0  0  0  0  0  0  0
   10.3885   -4.4388   19.2773 C   0  0  0  0  0  0  0  0  0  0  0  0
    4.5160   -9.3822   15.0841 C   0  0  0  0  0  0  0  0  0  0  0  0
  1  3  4  0
  1 24  4  0
  2  6  4  0
  2 15  4  0
  3  5  4  0
  3  6  4  0
  4 21  4  0
  4 29  4  0
  5 15  4  0
  5 28  1  0
  6 16  4  0
  7 18  4  0
  7 26  4  0
  8 18  1  0
  8 19  4  0
  8 22  4  0
  9 12  4  0
  9 19  4  0
 10 12  4  0
 10 22  4  0
 11 20  4  0
 11 21  4  0
 12 23  1  0
 13 20  4  0
 13 29  4  0
 14 17  4  0
 14 28  4  0
 15 25  2  0
 16 27  4  0
 17 18  4  0
 20 27  1  0
 24 27  4  0
 26 28  4  0
M  END
$$$$

 Created by Python create_sdf_string function

 29 33  0  0  0  0  0  0  0  0999 V2000
    8.8270   -7.0288   18.4251 C   0  0  0  0  0  0  0  0  0  0  0  0
    9.1576   -4.6236   15.8860 O   0  0  0  0  0  0  0  0  0  0  0  0
    9.1509   -5.9108   17.7177 C   0  0  0  0  0  0  0  0  0  0  0  0
    3.6373   -9.5349   16.0582 N   0  0  0  0  0  0  0  0  0  0  0  0
    9.9275   -4.8001   18.0438 N   0  0  0  0  0  0  0  0  0  0  0  0
    8.5908   -5.7425   16.4412 C   0  0  0  0  0  0  0  0  0  0  0  0
   10.5993   -4.8981   21.6068 C   0  0  0  0  0  0  0  0  0  0  0  0
   10.4258   -3.0106   23.0998 C   0  0  0  0  0  0  0  0  0  0  0  0
   10.2148   -3.4364   25.4200 C   0  0  0  0  0  0  0  0  0  0  0  0
    9.7853   -1.1840   24.4927 C   0  0  0  0  0  0  0  0  0  0  0  0
    5.0276   -8.5227   17.5352 C   0  0  0  0  0  0  0  0  0  0  0  0
    9.8187   -2.0895   25.5800 C   0  0  0  0  0  0  0  0  0  0  0  0
    5.6473   -8.7216   15.3158 C   0  0  0  0  0  0  0  0  0  0  0  0
   10.7581   -3.1233   19.4720 N   0  0  0  0  0  0  0  0  0  0  0  0
    9.9571   -4.0573   16.8866 C   0  0  0  0  0  0  0  0  0  0  0  0
    7.6213   -6.5618   16.0087 C   0  0  0  0  0  0  0  0  0  0  0  0
   10.8583   -2.6527   20.7222 C   0  0  0  0  0  0  0  0  0  0  0  0
   10.6412   -3.5089   21.7936 C   0  0  0  0  0  0  0  0  0  0  0  0
   10.4972   -3.8968   24.1589 C   0  0  0  0  0  0  0  0  0  0  0  0
    5.9260   -8.2736   16.5517 C   0  0  0  0  0  0  0  0  0  0  0  0
    3.8816   -9.1166   17.2493 C   0  0  0  0  0  0  0  0  0  0  0  0
   10.1297   -1.6575   23.2324 C   0  0  0  0  0  0  0  0  0  0  0  0
    9.4684   -1.6929   26.7263 F   0  0  0  0  0  0  0  0  0  0  0  0
    7.7963   -7.7906   17.9837 C   0  0  0  0  0  0  0  0  0  0  0  0
   10.5884   -3.0725   16.7902 O   0  0  0  0  0  0  0  0  0  0  0  0
   10.4323   -5.3494   20.3516 C   0  0  0  0  0  0  0  0  0  0  0  0
    7.1156   -7.5454   16.8218 C   0  0  0  0  0  0  0  0  0  0  0  0
   10.3885   -4.4388   19.2773 C   0  0  0  0  0  0  0  0  0  0  0  0
    4.5160   -9.3822   15.0841 C   0  0  0  0  0  0  0  0  0  0  0  0
  1  3  4  0
  1 24  4  0
  2  6  4  0
  2 15  4  0
  3  5  4  0
  3  6  4  0
  4 21  4  0
  4 29  4  0
  5 15  4  0
  5 28  1  0
  6 16  4  0
  7 18  4  0
  7 26  4  0
  8 18  1  0
  8 19  4  0
  8 22  4  0
  9 12  4  0
  9 19  4  0
 10 12  4  0
 10 22  4  0
 11 20  4  0
 11 21  4  0
 12 23  1  0
 13 20  4  0
 13 29  4  0
 14 17  4  0
 14 28  4  0
 15 25  2  0
 16 27  4  0
 17 18  4  0
 20 27  1  0
 24 27  4  0
 26 28  4  0
M  END
$$$$

 Created by Python create_sdf_string function

 29 33  0  0  0  0  0  0  0  0999 V2000
    8.8270   -7.0288   18.4251 C   0  0  0  0  0  0  0  0  0  0  0  0
    9.1576   -4.6236   15.8860 O   0  0  0  0  0  0  0  0  0  0  0  0
    9.1509   -5.9108   17.7177 C   0  0  0  0  0  0  0  0  0  0  0  0
    3.6373   -9.5349   16.0582 N   0  0  0  0  0  0  0  0  0  0  0  0
    9.9275   -4.8001   18.0438 N   0  0  0  0  0  0  0  0  0  0  0  0
    8.5908   -5.7425   16.4412 C   0  0  0  0  0  0  0  0  0  0  0  0
   10.5993   -4.8981   21.6068 C   0  0  0  0  0  0  0  0  0  0  0  0
   10.4258   -3.0106   23.0998 C   0  0  0  0  0  0  0  0  0  0  0  0
   10.2148   -3.4364   25.4200 C   0  0  0  0  0  0  0  0  0  0  0  0
    9.7853   -1.1840   24.4927 C   0  0  0  0  0  0  0  0  0  0  0  0
    5.0276   -8.5227   17.5352 C   0  0  0  0  0  0  0  0  0  0  0  0
    9.8187   -2.0895   25.5800 C   0  0  0  0  0  0  0  0  0  0  0  0
    5.6473   -8.7216   15.3158 C   0  0  0  0  0  0  0  0  0  0  0  0
   10.7581   -3.1233   19.4720 N   0  0  0  0  0  0  0  0  0  0  0  0
    9.9571   -4.0573   16.8866 C   0  0  0  0  0  0  0  0  0  0  0  0
    7.6213   -6.5618   16.0087 C   0  0  0  0  0  0  0  0  0  0  0  0
   10.8583   -2.6527   20.7222 C   0  0  0  0  0  0  0  0  0  0  0  0
   10.6412   -3.5089   21.7936 C   0  0  0  0  0  0  0  0  0  0  0  0
   10.4972   -3.8968   24.1589 C   0  0  0  0  0  0  0  0  0  0  0  0
    5.9260   -8.2736   16.5517 C   0  0  0  0  0  0  0  0  0  0  0  0
    3.8816   -9.1166   17.2493 C   0  0  0  0  0  0  0  0  0  0  0  0
   10.1297   -1.6575   23.2324 C   0  0  0  0  0  0  0  0  0  0  0  0
    9.4684   -1.6929   26.7263 F   0  0  0  0  0  0  0  0  0  0  0  0
    7.7963   -7.7906   17.9837 C   0  0  0  0  0  0  0  0  0  0  0  0
   10.5884   -3.0725   16.7902 O   0  0  0  0  0  0  0  0  0  0  0  0
   10.4323   -5.3494   20.3516 C   0  0  0  0  0  0  0  0  0  0  0  0
    7.1156   -7.5454   16.8218 C   0  0  0  0  0  0  0  0  0  0  0  0
   10.3885   -4.4388   19.2773 C   0  0  0  0  0  0  0  0  0  0  0  0
    4.5160   -9.3822   15.0841 C   0  0  0  0  0  0  0  0  0  0  0  0
  1  3  4  0
  1 24  4  0
  2  6  4  0
  2 15  4  0
  3  5  4  0
  3  6  4  0
  4 21  4  0
  4 29  4  0
  5 15  4  0
  5 28  1  0
  6 16  4  0
  7 18  4  0
  7 26  4  0
  8 18  1  0
  8 19  4  0
  8 22  4  0
  9 12  4  0
  9 19  4  0
 10 12  4  0
 10 22  4  0
 11 20  4  0
 11 21  4  0
 12 23  1  0
 13 20  4  0
 13 29  4  0
 14 17  4  0
 14 28  4  0
 15 25  2  0
 16 27  4  0
 17 18  4  0
 20 27  1  0
 24 27  4  0
 26 28  4  0
M  END
$$$$

 Created by Python create_sdf_string function

 29 33  0  0  0  0  0  0  0  0999 V2000
    8.8270   -7.0288   18.4251 C   0  0  0  0  0  0  0  0  0  0  0  0
    9.1576   -4.6236   15.8860 O   0  0  0  0  0  0  0  0  0  0  0  0
    9.1509   -5.9108   17.7177 C   0  0  0  0  0  0  0  0  0  0  0  0
    3.6373   -9.5349   16.0582 N   0  0  0  0  0  0  0  0  0  0  0  0
    9.9275   -4.8001   18.0438 N   0  0  0  0  0  0  0  0  0  0  0  0
    8.5908   -5.7425   16.4412 C   0  0  0  0  0  0  0  0  0  0  0  0
   10.5993   -4.8981   21.6068 C   0  0  0  0  0  0  0  0  0  0  0  0
   10.4258   -3.0106   23.0998 C   0  0  0  0  0  0  0  0  0  0  0  0
   10.2148   -3.4364   25.4200 C   0  0  0  0  0  0  0  0  0  0  0  0
    9.7853   -1.1840   24.4927 C   0  0  0  0  0  0  0  0  0  0  0  0
    5.0276   -8.5227   17.5352 C   0  0  0  0  0  0  0  0  0  0  0  0
    9.8187   -2.0895   25.5800 C   0  0  0  0  0  0  0  0  0  0  0  0
    5.6473   -8.7216   15.3158 C   0  0  0  0  0  0  0  0  0  0  0  0
   10.7581   -3.1233   19.4720 N   0  0  0  0  0  0  0  0  0  0  0  0
    9.9571   -4.0573   16.8866 C   0  0  0  0  0  0  0  0  0  0  0  0
    7.6213   -6.5618   16.0087 C   0  0  0  0  0  0  0  0  0  0  0  0
   10.8583   -2.6527   20.7222 C   0  0  0  0  0  0  0  0  0  0  0  0
   10.6412   -3.5089   21.7936 C   0  0  0  0  0  0  0  0  0  0  0  0
   10.4972   -3.8968   24.1589 C   0  0  0  0  0  0  0  0  0  0  0  0
    5.9260   -8.2736   16.5517 C   0  0  0  0  0  0  0  0  0  0  0  0
    3.8816   -9.1166   17.2493 C   0  0  0  0  0  0  0  0  0  0  0  0
   10.1297   -1.6575   23.2324 C   0  0  0  0  0  0  0  0  0  0  0  0
    9.4684   -1.6929   26.7263 F   0  0  0  0  0  0  0  0  0  0  0  0
    7.7963   -7.7906   17.9837 C   0  0  0  0  0  0  0  0  0  0  0  0
   10.5884   -3.0725   16.7902 O   0  0  0  0  0  0  0  0  0  0  0  0
   10.4323   -5.3494   20.3516 C   0  0  0  0  0  0  0  0  0  0  0  0
    7.1156   -7.5454   16.8218 C   0  0  0  0  0  0  0  0  0  0  0  0
   10.3885   -4.4388   19.2773 C   0  0  0  0  0  0  0  0  0  0  0  0
    4.5160   -9.3822   15.0841 C   0  0  0  0  0  0  0  0  0  0  0  0
  1  3  4  0
  1 24  4  0
  2  6  4  0
  2 15  4  0
  3  5  4  0
  3  6  4  0
  4 21  4  0
  4 29  4  0
  5 15  4  0
  5 28  1  0
  6 16  4  0
  7 18  4  0
  7 26  4  0
  8 18  1  0
  8 19  4  0
  8 22  4  0
  9 12  4  0
  9 19  4  0
 10 12  4  0
 10 22  4  0
 11 20  4  0
 11 21  4  0
 12 23  1  0
 13 20  4  0
 13 29  4  0
 14 17  4  0
 14 28  4  0
 15 25  2  0
 16 27  4  0
 17 18  4  0
 20 27  1  0
 24 27  4  0
 26 28  4  0
M  END
$$$$

 Created by Python create_sdf_string function

 29 33  0  0  0  0  0  0  0  0999 V2000
    8.8270   -7.0288   18.4251 C   0  0  0  0  0  0  0  0  0  0  0  0
    9.1576   -4.6236   15.8860 O   0  0  0  0  0  0  0  0  0  0  0  0
    9.1509   -5.9108   17.7177 C   0  0  0  0  0  0  0  0  0  0  0  0
    3.6373   -9.5349   16.0582 N   0  0  0  0  0  0  0  0  0  0  0  0
    9.9275   -4.8001   18.0438 N   0  0  0  0  0  0  0  0  0  0  0  0
    8.5908   -5.7425   16.4412 C   0  0  0  0  0  0  0  0  0  0  0  0
   10.5993   -4.8981   21.6068 C   0  0  0  0  0  0  0  0  0  0  0  0
   10.4258   -3.0106   23.0998 C   0  0  0  0  0  0  0  0  0  0  0  0
   10.2148   -3.4364   25.4200 C   0  0  0  0  0  0  0  0  0  0  0  0
    9.7853   -1.1840   24.4927 C   0  0  0  0  0  0  0  0  0  0  0  0
    5.0276   -8.5227   17.5352 C   0  0  0  0  0  0  0  0  0  0  0  0
    9.8187   -2.0895   25.5800 C   0  0  0  0  0  0  0  0  0  0  0  0
    5.6473   -8.7216   15.3158 C   0  0  0  0  0  0  0  0  0  0  0  0
   10.7581   -3.1233   19.4720 N   0  0  0  0  0  0  0  0  0  0  0  0
    9.9571   -4.0573   16.8866 C   0  0  0  0  0  0  0  0  0  0  0  0
    7.6213   -6.5618   16.0087 C   0  0  0  0  0  0  0  0  0  0  0  0
   10.8583   -2.6527   20.7222 C   0  0  0  0  0  0  0  0  0  0  0  0
   10.6412   -3.5089   21.7936 C   0  0  0  0  0  0  0  0  0  0  0  0
   10.4972   -3.8968   24.1589 C   0  0  0  0  0  0  0  0  0  0  0  0
    5.9260   -8.2736   16.5517 C   0  0  0  0  0  0  0  0  0  0  0  0
    3.8816   -9.1166   17.2493 C   0  0  0  0  0  0  0  0  0  0  0  0
   10.1297   -1.6575   23.2324 C   0  0  0  0  0  0  0  0  0  0  0  0
    9.4684   -1.6929   26.7263 F   0  0  0  0  0  0  0  0  0  0  0  0
    7.7963   -7.7906   17.9837 C   0  0  0  0  0  0  0  0  0  0  0  0
   10.5884   -3.0725   16.7902 O   0  0  0  0  0  0  0  0  0  0  0  0
   10.4323   -5.3494   20.3516 C   0  0  0  0  0  0  0  0  0  0  0  0
    7.1156   -7.5454   16.8218 C   0  0  0  0  0  0  0  0  0  0  0  0
   10.3885   -4.4388   19.2773 C   0  0  0  0  0  0  0  0  0  0  0  0
    4.5160   -9.3822   15.0841 C   0  0  0  0  0  0  0  0  0  0  0  0
  1  3  4  0
  1 24  4  0
  2  6  4  0
  2 15  4  0
  3  5  4  0
  3  6  4  0
  4 21  4  0
  4 29  4  0
  5 15  4  0
  5 28  1  0
  6 16  4  0
  7 18  4  0
  7 26  4  0
  8 18  1  0
  8 19  4  0
  8 22  4  0
  9 12  4  0
  9 19  4  0
 10 12  4  0
 10 22  4  0
 11 20  4  0
 11 21  4  0
 12 23  1  0
 13 20  4  0
 13 29  4  0
 14 17  4  0
 14 28  4  0
 15 25  2  0
 16 27  4  0
 17 18  4  0
 20 27  1  0
 24 27  4  0
 26 28  4  0
M  END
$$$$

 Created by Python create_sdf_string function

 29 33  0  0  0  0  0  0  0  0999 V2000
    8.8270   -7.0288   18.4251 C   0  0  0  0  0  0  0  0  0  0  0  0
    9.1576   -4.6236   15.8860 O   0  0  0  0  0  0  0  0  0  0  0  0
    9.1509   -5.9108   17.7177 C   0  0  0  0  0  0  0  0  0  0  0  0
    3.6373   -9.5349   16.0582 N   0  0  0  0  0  0  0  0  0  0  0  0
    9.9275   -4.8001   18.0438 N   0  0  0  0  0  0  0  0  0  0  0  0
    8.5908   -5.7425   16.4412 C   0  0  0  0  0  0  0  0  0  0  0  0
   10.5993   -4.8981   21.6068 C   0  0  0  0  0  0  0  0  0  0  0  0
   10.4258   -3.0106   23.0998 C   0  0  0  0  0  0  0  0  0  0  0  0
   10.2148   -3.4364   25.4200 C   0  0  0  0  0  0  0  0  0  0  0  0
    9.7853   -1.1840   24.4927 C   0  0  0  0  0  0  0  0  0  0  0  0
    5.0276   -8.5227   17.5352 C   0  0  0  0  0  0  0  0  0  0  0  0
    9.8187   -2.0895   25.5800 C   0  0  0  0  0  0  0  0  0  0  0  0
    5.6473   -8.7216   15.3158 C   0  0  0  0  0  0  0  0  0  0  0  0
   10.7581   -3.1233   19.4720 N   0  0  0  0  0  0  0  0  0  0  0  0
    9.9571   -4.0573   16.8866 C   0  0  0  0  0  0  0  0  0  0  0  0
    7.6213   -6.5618   16.0087 C   0  0  0  0  0  0  0  0  0  0  0  0
   10.8583   -2.6527   20.7222 C   0  0  0  0  0  0  0  0  0  0  0  0
   10.6412   -3.5089   21.7936 C   0  0  0  0  0  0  0  0  0  0  0  0
   10.4972   -3.8968   24.1589 C   0  0  0  0  0  0  0  0  0  0  0  0
    5.9260   -8.2736   16.5517 C   0  0  0  0  0  0  0  0  0  0  0  0
    3.8816   -9.1166   17.2493 C   0  0  0  0  0  0  0  0  0  0  0  0
   10.1297   -1.6575   23.2324 C   0  0  0  0  0  0  0  0  0  0  0  0
    9.4684   -1.6929   26.7263 F   0  0  0  0  0  0  0  0  0  0  0  0
    7.7963   -7.7906   17.9837 C   0  0  0  0  0  0  0  0  0  0  0  0
   10.5884   -3.0725   16.7902 O   0  0  0  0  0  0  0  0  0  0  0  0
   10.4323   -5.3494   20.3516 C   0  0  0  0  0  0  0  0  0  0  0  0
    7.1156   -7.5454   16.8218 C   0  0  0  0  0  0  0  0  0  0  0  0
   10.3885   -4.4388   19.2773 C   0  0  0  0  0  0  0  0  0  0  0  0
    4.5160   -9.3822   15.0841 C   0  0  0  0  0  0  0  0  0  0  0  0
  1  3  4  0
  1 24  4  0
  2  6  4  0
  2 15  4  0
  3  5  4  0
  3  6  4  0
  4 21  4  0
  4 29  4  0
  5 15  4  0
  5 28  1  0
  6 16  4  0
  7 18  4  0
  7 26  4  0
  8 18  1  0
  8 19  4  0
  8 22  4  0
  9 12  4  0
  9 19  4  0
 10 12  4  0
 10 22  4  0
 11 20  4  0
 11 21  4  0
 12 23  1  0
 13 20  4  0
 13 29  4  0
 14 17  4  0
 14 28  4  0
 15 25  2  0
 16 27  4  0
 17 18  4  0
 20 27  1  0
 24 27  4  0
 26 28  4  0
M  END
$$$$

 Created by Python create_sdf_string function

 29 33  0  0  0  0  0  0  0  0999 V2000
    8.8270   -7.0288   18.4251 C   0  0  0  0  0  0  0  0  0  0  0  0
    9.1576   -4.6236   15.8860 O   0  0  0  0  0  0  0  0  0  0  0  0
    9.1509   -5.9108   17.7177 C   0  0  0  0  0  0  0  0  0  0  0  0
    3.6373   -9.5349   16.0582 N   0  0  0  0  0  0  0  0  0  0  0  0
    9.9275   -4.8001   18.0438 N   0  0  0  0  0  0  0  0  0  0  0  0
    8.5908   -5.7425   16.4412 C   0  0  0  0  0  0  0  0  0  0  0  0
   10.5993   -4.8981   21.6068 C   0  0  0  0  0  0  0  0  0  0  0  0
   10.4258   -3.0106   23.0998 C   0  0  0  0  0  0  0  0  0  0  0  0
   10.2148   -3.4364   25.4200 C   0  0  0  0  0  0  0  0  0  0  0  0
    9.7853   -1.1840   24.4927 C   0  0  0  0  0  0  0  0  0  0  0  0
    5.0276   -8.5227   17.5352 C   0  0  0  0  0  0  0  0  0  0  0  0
    9.8187   -2.0895   25.5800 C   0  0  0  0  0  0  0  0  0  0  0  0
    5.6473   -8.7216   15.3158 C   0  0  0  0  0  0  0  0  0  0  0  0
   10.7581   -3.1233   19.4720 N   0  0  0  0  0  0  0  0  0  0  0  0
    9.9571   -4.0573   16.8866 C   0  0  0  0  0  0  0  0  0  0  0  0
    7.6213   -6.5618   16.0087 C   0  0  0  0  0  0  0  0  0  0  0  0
   10.8583   -2.6527   20.7222 C   0  0  0  0  0  0  0  0  0  0  0  0
   10.6412   -3.5089   21.7936 C   0  0  0  0  0  0  0  0  0  0  0  0
   10.4972   -3.8968   24.1589 C   0  0  0  0  0  0  0  0  0  0  0  0
    5.9260   -8.2736   16.5517 C   0  0  0  0  0  0  0  0  0  0  0  0
    3.8816   -9.1166   17.2493 C   0  0  0  0  0  0  0  0  0  0  0  0
   10.1297   -1.6575   23.2324 C   0  0  0  0  0  0  0  0  0  0  0  0
    9.4684   -1.6929   26.7263 F   0  0  0  0  0  0  0  0  0  0  0  0
    7.7963   -7.7906   17.9837 C   0  0  0  0  0  0  0  0  0  0  0  0
   10.5884   -3.0725   16.7902 O   0  0  0  0  0  0  0  0  0  0  0  0
   10.4323   -5.3494   20.3516 C   0  0  0  0  0  0  0  0  0  0  0  0
    7.1156   -7.5454   16.8218 C   0  0  0  0  0  0  0  0  0  0  0  0
   10.3885   -4.4388   19.2773 C   0  0  0  0  0  0  0  0  0  0  0  0
    4.5160   -9.3822   15.0841 C   0  0  0  0  0  0  0  0  0  0  0  0
  1  3  4  0
  1 24  4  0
  2  6  4  0
  2 15  4  0
  3  5  4  0
  3  6  4  0
  4 21  4  0
  4 29  4  0
  5 15  4  0
  5 28  1  0
  6 16  4  0
  7 18  4  0
  7 26  4  0
  8 18  1  0
  8 19  4  0
  8 22  4  0
  9 12  4  0
  9 19  4  0
 10 12  4  0
 10 22  4  0
 11 20  4  0
 11 21  4  0
 12 23  1  0
 13 20  4  0
 13 29  4  0
 14 17  4  0
 14 28  4  0
 15 25  2  0
 16 27  4  0
 17 18  4  0
 20 27  1  0
 24 27  4  0
 26 28  4  0
M  END
$$$$

 Created by Python create_sdf_string function

 29 33  0  0  0  0  0  0  0  0999 V2000
    8.8270   -7.0288   18.4251 C   0  0  0  0  0  0  0  0  0  0  0  0
    9.1576   -4.6236   15.8860 O   0  0  0  0  0  0  0  0  0  0  0  0
    9.1509   -5.9108   17.7177 C   0  0  0  0  0  0  0  0  0  0  0  0
    3.6373   -9.5349   16.0582 N   0  0  0  0  0  0  0  0  0  0  0  0
    9.9275   -4.8001   18.0438 N   0  0  0  0  0  0  0  0  0  0  0  0
    8.5908   -5.7425   16.4412 C   0  0  0  0  0  0  0  0  0  0  0  0
   10.5993   -4.8981   21.6068 C   0  0  0  0  0  0  0  0  0  0  0  0
   10.4258   -3.0106   23.0998 C   0  0  0  0  0  0  0  0  0  0  0  0
   10.2148   -3.4364   25.4200 C   0  0  0  0  0  0  0  0  0  0  0  0
    9.7853   -1.1840   24.4927 C   0  0  0  0  0  0  0  0  0  0  0  0
    5.0276   -8.5227   17.5352 C   0  0  0  0  0  0  0  0  0  0  0  0
    9.8187   -2.0895   25.5800 C   0  0  0  0  0  0  0  0  0  0  0  0
    5.6473   -8.7216   15.3158 C   0  0  0  0  0  0  0  0  0  0  0  0
   10.7581   -3.1233   19.4720 N   0  0  0  0  0  0  0  0  0  0  0  0
    9.9571   -4.0573   16.8866 C   0  0  0  0  0  0  0  0  0  0  0  0
    7.6213   -6.5618   16.0087 C   0  0  0  0  0  0  0  0  0  0  0  0
   10.8583   -2.6527   20.7222 C   0  0  0  0  0  0  0  0  0  0  0  0
   10.6412   -3.5089   21.7936 C   0  0  0  0  0  0  0  0  0  0  0  0
   10.4972   -3.8968   24.1589 C   0  0  0  0  0  0  0  0  0  0  0  0
    5.9260   -8.2736   16.5517 C   0  0  0  0  0  0  0  0  0  0  0  0
    3.8816   -9.1166   17.2493 C   0  0  0  0  0  0  0  0  0  0  0  0
   10.1297   -1.6575   23.2324 C   0  0  0  0  0  0  0  0  0  0  0  0
    9.4684   -1.6929   26.7263 F   0  0  0  0  0  0  0  0  0  0  0  0
    7.7963   -7.7906   17.9837 C   0  0  0  0  0  0  0  0  0  0  0  0
   10.5884   -3.0725   16.7902 O   0  0  0  0  0  0  0  0  0  0  0  0
   10.4323   -5.3494   20.3516 C   0  0  0  0  0  0  0  0  0  0  0  0
    7.1156   -7.5454   16.8218 C   0  0  0  0  0  0  0  0  0  0  0  0
   10.3885   -4.4388   19.2773 C   0  0  0  0  0  0  0  0  0  0  0  0
    4.5160   -9.3822   15.0841 C   0  0  0  0  0  0  0  0  0  0  0  0
  1  3  4  0
  1 24  4  0
  2  6  4  0
  2 15  4  0
  3  5  4  0
  3  6  4  0
  4 21  4  0
  4 29  4  0
  5 15  4  0
  5 28  1  0
  6 16  4  0
  7 18  4  0
  7 26  4  0
  8 18  1  0
  8 19  4  0
  8 22  4  0
  9 12  4  0
  9 19  4  0
 10 12  4  0
 10 22  4  0
 11 20  4  0
 11 21  4  0
 12 23  1  0
 13 20  4  0
 13 29  4  0
 14 17  4  0
 14 28  4  0
 15 25  2  0
 16 27  4  0
 17 18  4  0
 20 27  1  0
 24 27  4  0
 26 28  4  0
M  END
$$$$

 Created by Python create_sdf_string function

 29 33  0  0  0  0  0  0  0  0999 V2000
    8.8270   -7.0288   18.4251 C   0  0  0  0  0  0  0  0  0  0  0  0
    9.1576   -4.6236   15.8860 O   0  0  0  0  0  0  0  0  0  0  0  0
    9.1509   -5.9108   17.7177 C   0  0  0  0  0  0  0  0  0  0  0  0
    3.6373   -9.5349   16.0582 N   0  0  0  0  0  0  0  0  0  0  0  0
    9.9275   -4.8001   18.0438 N   0  0  0  0  0  0  0  0  0  0  0  0
    8.5908   -5.7425   16.4412 C   0  0  0  0  0  0  0  0  0  0  0  0
   10.5993   -4.8981   21.6068 C   0  0  0  0  0  0  0  0  0  0  0  0
   10.4258   -3.0106   23.0998 C   0  0  0  0  0  0  0  0  0  0  0  0
   10.2148   -3.4364   25.4200 C   0  0  0  0  0  0  0  0  0  0  0  0
    9.7853   -1.1840   24.4927 C   0  0  0  0  0  0  0  0  0  0  0  0
    5.0276   -8.5227   17.5352 C   0  0  0  0  0  0  0  0  0  0  0  0
    9.8187   -2.0895   25.5800 C   0  0  0  0  0  0  0  0  0  0  0  0
    5.6473   -8.7216   15.3158 C   0  0  0  0  0  0  0  0  0  0  0  0
   10.7581   -3.1233   19.4720 N   0  0  0  0  0  0  0  0  0  0  0  0
    9.9571   -4.0573   16.8866 C   0  0  0  0  0  0  0  0  0  0  0  0
    7.6213   -6.5618   16.0087 C   0  0  0  0  0  0  0  0  0  0  0  0
   10.8583   -2.6527   20.7222 C   0  0  0  0  0  0  0  0  0  0  0  0
   10.6412   -3.5089   21.7936 C   0  0  0  0  0  0  0  0  0  0  0  0
   10.4972   -3.8968   24.1589 C   0  0  0  0  0  0  0  0  0  0  0  0
    5.9260   -8.2736   16.5517 C   0  0  0  0  0  0  0  0  0  0  0  0
    3.8816   -9.1166   17.2493 C   0  0  0  0  0  0  0  0  0  0  0  0
   10.1297   -1.6575   23.2324 C   0  0  0  0  0  0  0  0  0  0  0  0
    9.4684   -1.6929   26.7263 F   0  0  0  0  0  0  0  0  0  0  0  0
    7.7963   -7.7906   17.9837 C   0  0  0  0  0  0  0  0  0  0  0  0
   10.5884   -3.0725   16.7902 O   0  0  0  0  0  0  0  0  0  0  0  0
   10.4323   -5.3494   20.3516 C   0  0  0  0  0  0  0  0  0  0  0  0
    7.1156   -7.5454   16.8218 C   0  0  0  0  0  0  0  0  0  0  0  0
   10.3885   -4.4388   19.2773 C   0  0  0  0  0  0  0  0  0  0  0  0
    4.5160   -9.3822   15.0841 C   0  0  0  0  0  0  0  0  0  0  0  0
  1  3  4  0
  1 24  4  0
  2  6  4  0
  2 15  4  0
  3  5  4  0
  3  6  4  0
  4 21  4  0
  4 29  4  0
  5 15  4  0
  5 28  1  0
  6 16  4  0
  7 18  4  0
  7 26  4  0
  8 18  1  0
  8 19  4  0
  8 22  4  0
  9 12  4  0
  9 19  4  0
 10 12  4  0
 10 22  4  0
 11 20  4  0
 11 21  4  0
 12 23  1  0
 13 20  4  0
 13 29  4  0
 14 17  4  0
 14 28  4  0
 15 25  2  0
 16 27  4  0
 17 18  4  0
 20 27  1  0
 24 27  4  0
 26 28  4  0
M  END
$$$$

 Created by Python create_sdf_string function

 29 33  0  0  0  0  0  0  0  0999 V2000
    8.8270   -7.0288   18.4251 C   0  0  0  0  0  0  0  0  0  0  0  0
    9.1576   -4.6236   15.8860 O   0  0  0  0  0  0  0  0  0  0  0  0
    9.1509   -5.9108   17.7177 C   0  0  0  0  0  0  0  0  0  0  0  0
    3.6373   -9.5349   16.0582 N   0  0  0  0  0  0  0  0  0  0  0  0
    9.9275   -4.8001   18.0438 N   0  0  0  0  0  0  0  0  0  0  0  0
    8.5908   -5.7425   16.4412 C   0  0  0  0  0  0  0  0  0  0  0  0
   10.5993   -4.8981   21.6068 C   0  0  0  0  0  0  0  0  0  0  0  0
   10.4258   -3.0106   23.0998 C   0  0  0  0  0  0  0  0  0  0  0  0
   10.2148   -3.4364   25.4200 C   0  0  0  0  0  0  0  0  0  0  0  0
    9.7853   -1.1840   24.4927 C   0  0  0  0  0  0  0  0  0  0  0  0
    5.0276   -8.5227   17.5352 C   0  0  0  0  0  0  0  0  0  0  0  0
    9.8187   -2.0895   25.5800 C   0  0  0  0  0  0  0  0  0  0  0  0
    5.6473   -8.7216   15.3158 C   0  0  0  0  0  0  0  0  0  0  0  0
   10.7581   -3.1233   19.4720 N   0  0  0  0  0  0  0  0  0  0  0  0
    9.9571   -4.0573   16.8866 C   0  0  0  0  0  0  0  0  0  0  0  0
    7.6213   -6.5618   16.0087 C   0  0  0  0  0  0  0  0  0  0  0  0
   10.8583   -2.6527   20.7222 C   0  0  0  0  0  0  0  0  0  0  0  0
   10.6412   -3.5089   21.7936 C   0  0  0  0  0  0  0  0  0  0  0  0
   10.4972   -3.8968   24.1589 C   0  0  0  0  0  0  0  0  0  0  0  0
    5.9260   -8.2736   16.5517 C   0  0  0  0  0  0  0  0  0  0  0  0
    3.8816   -9.1166   17.2493 C   0  0  0  0  0  0  0  0  0  0  0  0
   10.1297   -1.6575   23.2324 C   0  0  0  0  0  0  0  0  0  0  0  0
    9.4684   -1.6929   26.7263 F   0  0  0  0  0  0  0  0  0  0  0  0
    7.7963   -7.7906   17.9837 C   0  0  0  0  0  0  0  0  0  0  0  0
   10.5884   -3.0725   16.7902 O   0  0  0  0  0  0  0  0  0  0  0  0
   10.4323   -5.3494   20.3516 C   0  0  0  0  0  0  0  0  0  0  0  0
    7.1156   -7.5454   16.8218 C   0  0  0  0  0  0  0  0  0  0  0  0
   10.3885   -4.4388   19.2773 C   0  0  0  0  0  0  0  0  0  0  0  0
    4.5160   -9.3822   15.0841 C   0  0  0  0  0  0  0  0  0  0  0  0
  1  3  4  0
  1 24  4  0
  2  6  4  0
  2 15  4  0
  3  5  4  0
  3  6  4  0
  4 21  4  0
  4 29  4  0
  5 15  4  0
  5 28  1  0
  6 16  4  0
  7 18  4  0
  7 26  4  0
  8 18  1  0
  8 19  4  0
  8 22  4  0
  9 12  4  0
  9 19  4  0
 10 12  4  0
 10 22  4  0
 11 20  4  0
 11 21  4  0
 12 23  1  0
 13 20  4  0
 13 29  4  0
 14 17  4  0
 14 28  4  0
 15 25  2  0
 16 27  4  0
 17 18  4  0
 20 27  1  0
 24 27  4  0
 26 28  4  0
M  END
$$$$

 Created by Python create_sdf_string function

 29 33  0  0  0  0  0  0  0  0999 V2000
    8.8270   -7.0288   18.4251 C   0  0  0  0  0  0  0  0  0  0  0  0
    9.1576   -4.6236   15.8860 O   0  0  0  0  0  0  0  0  0  0  0  0
    9.1509   -5.9108   17.7177 C   0  0  0  0  0  0  0  0  0  0  0  0
    3.6373   -9.5349   16.0582 N   0  0  0  0  0  0  0  0  0  0  0  0
    9.9275   -4.8001   18.0438 N   0  0  0  0  0  0  0  0  0  0  0  0
    8.5908   -5.7425   16.4412 C   0  0  0  0  0  0  0  0  0  0  0  0
   10.5993   -4.8981   21.6068 C   0  0  0  0  0  0  0  0  0  0  0  0
   10.4258   -3.0106   23.0998 C   0  0  0  0  0  0  0  0  0  0  0  0
   10.2148   -3.4364   25.4200 C   0  0  0  0  0  0  0  0  0  0  0  0
    9.7853   -1.1840   24.4927 C   0  0  0  0  0  0  0  0  0  0  0  0
    5.0276   -8.5227   17.5352 C   0  0  0  0  0  0  0  0  0  0  0  0
    9.8187   -2.0895   25.5800 C   0  0  0  0  0  0  0  0  0  0  0  0
    5.6473   -8.7216   15.3158 C   0  0  0  0  0  0  0  0  0  0  0  0
   10.7581   -3.1233   19.4720 N   0  0  0  0  0  0  0  0  0  0  0  0
    9.9571   -4.0573   16.8866 C   0  0  0  0  0  0  0  0  0  0  0  0
    7.6213   -6.5618   16.0087 C   0  0  0  0  0  0  0  0  0  0  0  0
   10.8583   -2.6527   20.7222 C   0  0  0  0  0  0  0  0  0  0  0  0
   10.6412   -3.5089   21.7936 C   0  0  0  0  0  0  0  0  0  0  0  0
   10.4972   -3.8968   24.1589 C   0  0  0  0  0  0  0  0  0  0  0  0
    5.9260   -8.2736   16.5517 C   0  0  0  0  0  0  0  0  0  0  0  0
    3.8816   -9.1166   17.2493 C   0  0  0  0  0  0  0  0  0  0  0  0
   10.1297   -1.6575   23.2324 C   0  0  0  0  0  0  0  0  0  0  0  0
    9.4684   -1.6929   26.7263 F   0  0  0  0  0  0  0  0  0  0  0  0
    7.7963   -7.7906   17.9837 C   0  0  0  0  0  0  0  0  0  0  0  0
   10.5884   -3.0725   16.7902 O   0  0  0  0  0  0  0  0  0  0  0  0
   10.4323   -5.3494   20.3516 C   0  0  0  0  0  0  0  0  0  0  0  0
    7.1156   -7.5454   16.8218 C   0  0  0  0  0  0  0  0  0  0  0  0
   10.3885   -4.4388   19.2773 C   0  0  0  0  0  0  0  0  0  0  0  0
    4.5160   -9.3822   15.0841 C   0  0  0  0  0  0  0  0  0  0  0  0
  1  3  4  0
  1 24  4  0
  2  6  4  0
  2 15  4  0
  3  5  4  0
  3  6  4  0
  4 21  4  0
  4 29  4  0
  5 15  4  0
  5 28  1  0
  6 16  4  0
  7 18  4  0
  7 26  4  0
  8 18  1  0
  8 19  4  0
  8 22  4  0
  9 12  4  0
  9 19  4  0
 10 12  4  0
 10 22  4  0
 11 20  4  0
 11 21  4  0
 12 23  1  0
 13 20  4  0
 13 29  4  0
 14 17  4  0
 14 28  4  0
 15 25  2  0
 16 27  4  0
 17 18  4  0
 20 27  1  0
 24 27  4  0
 26 28  4  0
M  END
$$$$

 Created by Python create_sdf_string function

 29 33  0  0  0  0  0  0  0  0999 V2000
    8.8270   -7.0288   18.4251 C   0  0  0  0  0  0  0  0  0  0  0  0
    9.1576   -4.6236   15.8860 O   0  0  0  0  0  0  0  0  0  0  0  0
    9.1509   -5.9108   17.7177 C   0  0  0  0  0  0  0  0  0  0  0  0
    3.6373   -9.5349   16.0582 N   0  0  0  0  0  0  0  0  0  0  0  0
    9.9275   -4.8001   18.0438 N   0  0  0  0  0  0  0  0  0  0  0  0
    8.5908   -5.7425   16.4412 C   0  0  0  0  0  0  0  0  0  0  0  0
   10.5993   -4.8981   21.6068 C   0  0  0  0  0  0  0  0  0  0  0  0
   10.4258   -3.0106   23.0998 C   0  0  0  0  0  0  0  0  0  0  0  0
   10.2148   -3.4364   25.4200 C   0  0  0  0  0  0  0  0  0  0  0  0
    9.7853   -1.1840   24.4927 C   0  0  0  0  0  0  0  0  0  0  0  0
    5.0276   -8.5227   17.5352 C   0  0  0  0  0  0  0  0  0  0  0  0
    9.8187   -2.0895   25.5800 C   0  0  0  0  0  0  0  0  0  0  0  0
    5.6473   -8.7216   15.3158 C   0  0  0  0  0  0  0  0  0  0  0  0
   10.7581   -3.1233   19.4720 N   0  0  0  0  0  0  0  0  0  0  0  0
    9.9571   -4.0573   16.8866 C   0  0  0  0  0  0  0  0  0  0  0  0
    7.6213   -6.5618   16.0087 C   0  0  0  0  0  0  0  0  0  0  0  0
   10.8583   -2.6527   20.7222 C   0  0  0  0  0  0  0  0  0  0  0  0
   10.6412   -3.5089   21.7936 C   0  0  0  0  0  0  0  0  0  0  0  0
   10.4972   -3.8968   24.1589 C   0  0  0  0  0  0  0  0  0  0  0  0
    5.9260   -8.2736   16.5517 C   0  0  0  0  0  0  0  0  0  0  0  0
    3.8816   -9.1166   17.2493 C   0  0  0  0  0  0  0  0  0  0  0  0
   10.1297   -1.6575   23.2324 C   0  0  0  0  0  0  0  0  0  0  0  0
    9.4684   -1.6929   26.7263 F   0  0  0  0  0  0  0  0  0  0  0  0
    7.7963   -7.7906   17.9837 C   0  0  0  0  0  0  0  0  0  0  0  0
   10.5884   -3.0725   16.7902 O   0  0  0  0  0  0  0  0  0  0  0  0
   10.4323   -5.3494   20.3516 C   0  0  0  0  0  0  0  0  0  0  0  0
    7.1156   -7.5454   16.8218 C   0  0  0  0  0  0  0  0  0  0  0  0
   10.3885   -4.4388   19.2773 C   0  0  0  0  0  0  0  0  0  0  0  0
    4.5160   -9.3822   15.0841 C   0  0  0  0  0  0  0  0  0  0  0  0
  1  3  4  0
  1 24  4  0
  2  6  4  0
  2 15  4  0
  3  5  4  0
  3  6  4  0
  4 21  4  0
  4 29  4  0
  5 15  4  0
  5 28  1  0
  6 16  4  0
  7 18  4  0
  7 26  4  0
  8 18  1  0
  8 19  4  0
  8 22  4  0
  9 12  4  0
  9 19  4  0
 10 12  4  0
 10 22  4  0
 11 20  4  0
 11 21  4  0
 12 23  1  0
 13 20  4  0
 13 29  4  0
 14 17  4  0
 14 28  4  0
 15 25  2  0
 16 27  4  0
 17 18  4  0
 20 27  1  0
 24 27  4  0
 26 28  4  0
M  END
$$$$

 Created by Python create_sdf_string function

 29 33  0  0  0  0  0  0  0  0999 V2000
    8.8270   -7.0288   18.4251 C   0  0  0  0  0  0  0  0  0  0  0  0
    9.1576   -4.6236   15.8860 O   0  0  0  0  0  0  0  0  0  0  0  0
    9.1509   -5.9108   17.7177 C   0  0  0  0  0  0  0  0  0  0  0  0
    3.6373   -9.5349   16.0582 N   0  0  0  0  0  0  0  0  0  0  0  0
    9.9275   -4.8001   18.0438 N   0  0  0  0  0  0  0  0  0  0  0  0
    8.5908   -5.7425   16.4412 C   0  0  0  0  0  0  0  0  0  0  0  0
   10.5993   -4.8981   21.6068 C   0  0  0  0  0  0  0  0  0  0  0  0
   10.4258   -3.0106   23.0998 C   0  0  0  0  0  0  0  0  0  0  0  0
   10.2148   -3.4364   25.4200 C   0  0  0  0  0  0  0  0  0  0  0  0
    9.7853   -1.1840   24.4927 C   0  0  0  0  0  0  0  0  0  0  0  0
    5.0276   -8.5227   17.5352 C   0  0  0  0  0  0  0  0  0  0  0  0
    9.8187   -2.0895   25.5800 C   0  0  0  0  0  0  0  0  0  0  0  0
    5.6473   -8.7216   15.3158 C   0  0  0  0  0  0  0  0  0  0  0  0
   10.7581   -3.1233   19.4720 N   0  0  0  0  0  0  0  0  0  0  0  0
    9.9571   -4.0573   16.8866 C   0  0  0  0  0  0  0  0  0  0  0  0
    7.6213   -6.5618   16.0087 C   0  0  0  0  0  0  0  0  0  0  0  0
   10.8583   -2.6527   20.7222 C   0  0  0  0  0  0  0  0  0  0  0  0
   10.6412   -3.5089   21.7936 C   0  0  0  0  0  0  0  0  0  0  0  0
   10.4972   -3.8968   24.1589 C   0  0  0  0  0  0  0  0  0  0  0  0
    5.9260   -8.2736   16.5517 C   0  0  0  0  0  0  0  0  0  0  0  0
    3.8816   -9.1166   17.2493 C   0  0  0  0  0  0  0  0  0  0  0  0
   10.1297   -1.6575   23.2324 C   0  0  0  0  0  0  0  0  0  0  0  0
    9.4684   -1.6929   26.7263 F   0  0  0  0  0  0  0  0  0  0  0  0
    7.7963   -7.7906   17.9837 C   0  0  0  0  0  0  0  0  0  0  0  0
   10.5884   -3.0725   16.7902 O   0  0  0  0  0  0  0  0  0  0  0  0
   10.4323   -5.3494   20.3516 C   0  0  0  0  0  0  0  0  0  0  0  0
    7.1156   -7.5454   16.8218 C   0  0  0  0  0  0  0  0  0  0  0  0
   10.3885   -4.4388   19.2773 C   0  0  0  0  0  0  0  0  0  0  0  0
    4.5160   -9.3822   15.0841 C   0  0  0  0  0  0  0  0  0  0  0  0
  1  3  4  0
  1 24  4  0
  2  6  4  0
  2 15  4  0
  3  5  4  0
  3  6  4  0
  4 21  4  0
  4 29  4  0
  5 15  4  0
  5 28  1  0
  6 16  4  0
  7 18  4  0
  7 26  4  0
  8 18  1  0
  8 19  4  0
  8 22  4  0
  9 12  4  0
  9 19  4  0
 10 12  4  0
 10 22  4  0
 11 20  4  0
 11 21  4  0
 12 23  1  0
 13 20  4  0
 13 29  4  0
 14 17  4  0
 14 28  4  0
 15 25  2  0
 16 27  4  0
 17 18  4  0
 20 27  1  0
 24 27  4  0
 26 28  4  0
M  END
$$$$

 Created by Python create_sdf_string function

 29 33  0  0  0  0  0  0  0  0999 V2000
    8.8270   -7.0288   18.4251 C   0  0  0  0  0  0  0  0  0  0  0  0
    9.1576   -4.6236   15.8860 O   0  0  0  0  0  0  0  0  0  0  0  0
    9.1509   -5.9108   17.7177 C   0  0  0  0  0  0  0  0  0  0  0  0
    3.6373   -9.5349   16.0582 N   0  0  0  0  0  0  0  0  0  0  0  0
    9.9275   -4.8001   18.0438 N   0  0  0  0  0  0  0  0  0  0  0  0
    8.5908   -5.7425   16.4412 C   0  0  0  0  0  0  0  0  0  0  0  0
   10.5993   -4.8981   21.6068 C   0  0  0  0  0  0  0  0  0  0  0  0
   10.4258   -3.0106   23.0998 C   0  0  0  0  0  0  0  0  0  0  0  0
   10.2148   -3.4364   25.4200 C   0  0  0  0  0  0  0  0  0  0  0  0
    9.7853   -1.1840   24.4927 C   0  0  0  0  0  0  0  0  0  0  0  0
    5.0276   -8.5227   17.5352 C   0  0  0  0  0  0  0  0  0  0  0  0
    9.8187   -2.0895   25.5800 C   0  0  0  0  0  0  0  0  0  0  0  0
    5.6473   -8.7216   15.3158 C   0  0  0  0  0  0  0  0  0  0  0  0
   10.7581   -3.1233   19.4720 N   0  0  0  0  0  0  0  0  0  0  0  0
    9.9571   -4.0573   16.8866 C   0  0  0  0  0  0  0  0  0  0  0  0
    7.6213   -6.5618   16.0087 C   0  0  0  0  0  0  0  0  0  0  0  0
   10.8583   -2.6527   20.7222 C   0  0  0  0  0  0  0  0  0  0  0  0
   10.6412   -3.5089   21.7936 C   0  0  0  0  0  0  0  0  0  0  0  0
   10.4972   -3.8968   24.1589 C   0  0  0  0  0  0  0  0  0  0  0  0
    5.9260   -8.2736   16.5517 C   0  0  0  0  0  0  0  0  0  0  0  0
    3.8816   -9.1166   17.2493 C   0  0  0  0  0  0  0  0  0  0  0  0
   10.1297   -1.6575   23.2324 C   0  0  0  0  0  0  0  0  0  0  0  0
    9.4684   -1.6929   26.7263 F   0  0  0  0  0  0  0  0  0  0  0  0
    7.7963   -7.7906   17.9837 C   0  0  0  0  0  0  0  0  0  0  0  0
   10.5884   -3.0725   16.7902 O   0  0  0  0  0  0  0  0  0  0  0  0
   10.4323   -5.3494   20.3516 C   0  0  0  0  0  0  0  0  0  0  0  0
    7.1156   -7.5454   16.8218 C   0  0  0  0  0  0  0  0  0  0  0  0
   10.3885   -4.4388   19.2773 C   0  0  0  0  0  0  0  0  0  0  0  0
    4.5160   -9.3822   15.0841 C   0  0  0  0  0  0  0  0  0  0  0  0
  1  3  4  0
  1 24  4  0
  2  6  4  0
  2 15  4  0
  3  5  4  0
  3  6  4  0
  4 21  4  0
  4 29  4  0
  5 15  4  0
  5 28  1  0
  6 16  4  0
  7 18  4  0
  7 26  4  0
  8 18  1  0
  8 19  4  0
  8 22  4  0
  9 12  4  0
  9 19  4  0
 10 12  4  0
 10 22  4  0
 11 20  4  0
 11 21  4  0
 12 23  1  0
 13 20  4  0
 13 29  4  0
 14 17  4  0
 14 28  4  0
 15 25  2  0
 16 27  4  0
 17 18  4  0
 20 27  1  0
 24 27  4  0
 26 28  4  0
M  END
$$$$

 Created by Python create_sdf_string function

 29 33  0  0  0  0  0  0  0  0999 V2000
    8.8270   -7.0288   18.4251 C   0  0  0  0  0  0  0  0  0  0  0  0
    9.1576   -4.6236   15.8860 O   0  0  0  0  0  0  0  0  0  0  0  0
    9.1509   -5.9108   17.7177 C   0  0  0  0  0  0  0  0  0  0  0  0
    3.6373   -9.5349   16.0582 N   0  0  0  0  0  0  0  0  0  0  0  0
    9.9275   -4.8001   18.0438 N   0  0  0  0  0  0  0  0  0  0  0  0
    8.5908   -5.7425   16.4412 C   0  0  0  0  0  0  0  0  0  0  0  0
   10.5993   -4.8981   21.6068 C   0  0  0  0  0  0  0  0  0  0  0  0
   10.4258   -3.0106   23.0998 C   0  0  0  0  0  0  0  0  0  0  0  0
   10.2148   -3.4364   25.4200 C   0  0  0  0  0  0  0  0  0  0  0  0
    9.7853   -1.1840   24.4927 C   0  0  0  0  0  0  0  0  0  0  0  0
    5.0276   -8.5227   17.5352 C   0  0  0  0  0  0  0  0  0  0  0  0
    9.8187   -2.0895   25.5800 C   0  0  0  0  0  0  0  0  0  0  0  0
    5.6473   -8.7216   15.3158 C   0  0  0  0  0  0  0  0  0  0  0  0
   10.7581   -3.1233   19.4720 N   0  0  0  0  0  0  0  0  0  0  0  0
    9.9571   -4.0573   16.8866 C   0  0  0  0  0  0  0  0  0  0  0  0
    7.6213   -6.5618   16.0087 C   0  0  0  0  0  0  0  0  0  0  0  0
   10.8583   -2.6527   20.7222 C   0  0  0  0  0  0  0  0  0  0  0  0
   10.6412   -3.5089   21.7936 C   0  0  0  0  0  0  0  0  0  0  0  0
   10.4972   -3.8968   24.1589 C   0  0  0  0  0  0  0  0  0  0  0  0
    5.9260   -8.2736   16.5517 C   0  0  0  0  0  0  0  0  0  0  0  0
    3.8816   -9.1166   17.2493 C   0  0  0  0  0  0  0  0  0  0  0  0
   10.1297   -1.6575   23.2324 C   0  0  0  0  0  0  0  0  0  0  0  0
    9.4684   -1.6929   26.7263 F   0  0  0  0  0  0  0  0  0  0  0  0
    7.7963   -7.7906   17.9837 C   0  0  0  0  0  0  0  0  0  0  0  0
   10.5884   -3.0725   16.7902 O   0  0  0  0  0  0  0  0  0  0  0  0
   10.4323   -5.3494   20.3516 C   0  0  0  0  0  0  0  0  0  0  0  0
    7.1156   -7.5454   16.8218 C   0  0  0  0  0  0  0  0  0  0  0  0
   10.3885   -4.4388   19.2773 C   0  0  0  0  0  0  0  0  0  0  0  0
    4.5160   -9.3822   15.0841 C   0  0  0  0  0  0  0  0  0  0  0  0
  1  3  4  0
  1 24  4  0
  2  6  4  0
  2 15  4  0
  3  5  4  0
  3  6  4  0
  4 21  4  0
  4 29  4  0
  5 15  4  0
  5 28  1  0
  6 16  4  0
  7 18  4  0
  7 26  4  0
  8 18  1  0
  8 19  4  0
  8 22  4  0
  9 12  4  0
  9 19  4  0
 10 12  4  0
 10 22  4  0
 11 20  4  0
 11 21  4  0
 12 23  1  0
 13 20  4  0
 13 29  4  0
 14 17  4  0
 14 28  4  0
 15 25  2  0
 16 27  4  0
 17 18  4  0
 20 27  1  0
 24 27  4  0
 26 28  4  0
M  END
$$$$

 Created by Python create_sdf_string function

 29 33  0  0  0  0  0  0  0  0999 V2000
    8.8270   -7.0288   18.4251 C   0  0  0  0  0  0  0  0  0  0  0  0
    9.1576   -4.6236   15.8860 O   0  0  0  0  0  0  0  0  0  0  0  0
    9.1509   -5.9108   17.7177 C   0  0  0  0  0  0  0  0  0  0  0  0
    3.6373   -9.5349   16.0582 N   0  0  0  0  0  0  0  0  0  0  0  0
    9.9275   -4.8001   18.0438 N   0  0  0  0  0  0  0  0  0  0  0  0
    8.5908   -5.7425   16.4412 C   0  0  0  0  0  0  0  0  0  0  0  0
   10.5993   -4.8981   21.6068 C   0  0  0  0  0  0  0  0  0  0  0  0
   10.4258   -3.0106   23.0998 C   0  0  0  0  0  0  0  0  0  0  0  0
   10.2148   -3.4364   25.4200 C   0  0  0  0  0  0  0  0  0  0  0  0
    9.7853   -1.1840   24.4927 C   0  0  0  0  0  0  0  0  0  0  0  0
    5.0276   -8.5227   17.5352 C   0  0  0  0  0  0  0  0  0  0  0  0
    9.8187   -2.0895   25.5800 C   0  0  0  0  0  0  0  0  0  0  0  0
    5.6473   -8.7216   15.3158 C   0  0  0  0  0  0  0  0  0  0  0  0
   10.7581   -3.1233   19.4720 N   0  0  0  0  0  0  0  0  0  0  0  0
    9.9571   -4.0573   16.8866 C   0  0  0  0  0  0  0  0  0  0  0  0
    7.6213   -6.5618   16.0087 C   0  0  0  0  0  0  0  0  0  0  0  0
   10.8583   -2.6527   20.7222 C   0  0  0  0  0  0  0  0  0  0  0  0
   10.6412   -3.5089   21.7936 C   0  0  0  0  0  0  0  0  0  0  0  0
   10.4972   -3.8968   24.1589 C   0  0  0  0  0  0  0  0  0  0  0  0
    5.9260   -8.2736   16.5517 C   0  0  0  0  0  0  0  0  0  0  0  0
    3.8816   -9.1166   17.2493 C   0  0  0  0  0  0  0  0  0  0  0  0
   10.1297   -1.6575   23.2324 C   0  0  0  0  0  0  0  0  0  0  0  0
    9.4684   -1.6929   26.7263 F   0  0  0  0  0  0  0  0  0  0  0  0
    7.7963   -7.7906   17.9837 C   0  0  0  0  0  0  0  0  0  0  0  0
   10.5884   -3.0725   16.7902 O   0  0  0  0  0  0  0  0  0  0  0  0
   10.4323   -5.3494   20.3516 C   0  0  0  0  0  0  0  0  0  0  0  0
    7.1156   -7.5454   16.8218 C   0  0  0  0  0  0  0  0  0  0  0  0
   10.3885   -4.4388   19.2773 C   0  0  0  0  0  0  0  0  0  0  0  0
    4.5160   -9.3822   15.0841 C   0  0  0  0  0  0  0  0  0  0  0  0
  1  3  4  0
  1 24  4  0
  2  6  4  0
  2 15  4  0
  3  5  4  0
  3  6  4  0
  4 21  4  0
  4 29  4  0
  5 15  4  0
  5 28  1  0
  6 16  4  0
  7 18  4  0
  7 26  4  0
  8 18  1  0
  8 19  4  0
  8 22  4  0
  9 12  4  0
  9 19  4  0
 10 12  4  0
 10 22  4  0
 11 20  4  0
 11 21  4  0
 12 23  1  0
 13 20  4  0
 13 29  4  0
 14 17  4  0
 14 28  4  0
 15 25  2  0
 16 27  4  0
 17 18  4  0
 20 27  1  0
 24 27  4  0
 26 28  4  0
M  END
$$$$

 Created by Python create_sdf_string function

 29 33  0  0  0  0  0  0  0  0999 V2000
    8.8270   -7.0288   18.4251 C   0  0  0  0  0  0  0  0  0  0  0  0
    9.1576   -4.6236   15.8860 O   0  0  0  0  0  0  0  0  0  0  0  0
    9.1509   -5.9108   17.7177 C   0  0  0  0  0  0  0  0  0  0  0  0
    3.6373   -9.5349   16.0582 N   0  0  0  0  0  0  0  0  0  0  0  0
    9.9275   -4.8001   18.0438 N   0  0  0  0  0  0  0  0  0  0  0  0
    8.5908   -5.7425   16.4412 C   0  0  0  0  0  0  0  0  0  0  0  0
   10.5993   -4.8981   21.6068 C   0  0  0  0  0  0  0  0  0  0  0  0
   10.4258   -3.0106   23.0998 C   0  0  0  0  0  0  0  0  0  0  0  0
   10.2148   -3.4364   25.4200 C   0  0  0  0  0  0  0  0  0  0  0  0
    9.7853   -1.1840   24.4927 C   0  0  0  0  0  0  0  0  0  0  0  0
    5.0276   -8.5227   17.5352 C   0  0  0  0  0  0  0  0  0  0  0  0
    9.8187   -2.0895   25.5800 C   0  0  0  0  0  0  0  0  0  0  0  0
    5.6473   -8.7216   15.3158 C   0  0  0  0  0  0  0  0  0  0  0  0
   10.7581   -3.1233   19.4720 N   0  0  0  0  0  0  0  0  0  0  0  0
    9.9571   -4.0573   16.8866 C   0  0  0  0  0  0  0  0  0  0  0  0
    7.6213   -6.5618   16.0087 C   0  0  0  0  0  0  0  0  0  0  0  0
   10.8583   -2.6527   20.7222 C   0  0  0  0  0  0  0  0  0  0  0  0
   10.6412   -3.5089   21.7936 C   0  0  0  0  0  0  0  0  0  0  0  0
   10.4972   -3.8968   24.1589 C   0  0  0  0  0  0  0  0  0  0  0  0
    5.9260   -8.2736   16.5517 C   0  0  0  0  0  0  0  0  0  0  0  0
    3.8816   -9.1166   17.2493 C   0  0  0  0  0  0  0  0  0  0  0  0
   10.1297   -1.6575   23.2324 C   0  0  0  0  0  0  0  0  0  0  0  0
    9.4684   -1.6929   26.7263 F   0  0  0  0  0  0  0  0  0  0  0  0
    7.7963   -7.7906   17.9837 C   0  0  0  0  0  0  0  0  0  0  0  0
   10.5884   -3.0725   16.7902 O   0  0  0  0  0  0  0  0  0  0  0  0
   10.4323   -5.3494   20.3516 C   0  0  0  0  0  0  0  0  0  0  0  0
    7.1156   -7.5454   16.8218 C   0  0  0  0  0  0  0  0  0  0  0  0
   10.3885   -4.4388   19.2773 C   0  0  0  0  0  0  0  0  0  0  0  0
    4.5160   -9.3822   15.0841 C   0  0  0  0  0  0  0  0  0  0  0  0
  1  3  4  0
  1 24  4  0
  2  6  4  0
  2 15  4  0
  3  5  4  0
  3  6  4  0
  4 21  4  0
  4 29  4  0
  5 15  4  0
  5 28  1  0
  6 16  4  0
  7 18  4  0
  7 26  4  0
  8 18  1  0
  8 19  4  0
  8 22  4  0
  9 12  4  0
  9 19  4  0
 10 12  4  0
 10 22  4  0
 11 20  4  0
 11 21  4  0
 12 23  1  0
 13 20  4  0
 13 29  4  0
 14 17  4  0
 14 28  4  0
 15 25  2  0
 16 27  4  0
 17 18  4  0
 20 27  1  0
 24 27  4  0
 26 28  4  0
M  END
$$$$

 Created by Python create_sdf_string function

 29 33  0  0  0  0  0  0  0  0999 V2000
    8.8270   -7.0288   18.4251 C   0  0  0  0  0  0  0  0  0  0  0  0
    9.1576   -4.6236   15.8860 O   0  0  0  0  0  0  0  0  0  0  0  0
    9.1509   -5.9108   17.7177 C   0  0  0  0  0  0  0  0  0  0  0  0
    3.6373   -9.5349   16.0582 N   0  0  0  0  0  0  0  0  0  0  0  0
    9.9275   -4.8001   18.0438 N   0  0  0  0  0  0  0  0  0  0  0  0
    8.5908   -5.7425   16.4412 C   0  0  0  0  0  0  0  0  0  0  0  0
   10.5993   -4.8981   21.6068 C   0  0  0  0  0  0  0  0  0  0  0  0
   10.4258   -3.0106   23.0998 C   0  0  0  0  0  0  0  0  0  0  0  0
   10.2148   -3.4364   25.4200 C   0  0  0  0  0  0  0  0  0  0  0  0
    9.7853   -1.1840   24.4927 C   0  0  0  0  0  0  0  0  0  0  0  0
    5.0276   -8.5227   17.5352 C   0  0  0  0  0  0  0  0  0  0  0  0
    9.8187   -2.0895   25.5800 C   0  0  0  0  0  0  0  0  0  0  0  0
    5.6473   -8.7216   15.3158 C   0  0  0  0  0  0  0  0  0  0  0  0
   10.7581   -3.1233   19.4720 N   0  0  0  0  0  0  0  0  0  0  0  0
    9.9571   -4.0573   16.8866 C   0  0  0  0  0  0  0  0  0  0  0  0
    7.6213   -6.5618   16.0087 C   0  0  0  0  0  0  0  0  0  0  0  0
   10.8583   -2.6527   20.7222 C   0  0  0  0  0  0  0  0  0  0  0  0
   10.6412   -3.5089   21.7936 C   0  0  0  0  0  0  0  0  0  0  0  0
   10.4972   -3.8968   24.1589 C   0  0  0  0  0  0  0  0  0  0  0  0
    5.9260   -8.2736   16.5517 C   0  0  0  0  0  0  0  0  0  0  0  0
    3.8816   -9.1166   17.2493 C   0  0  0  0  0  0  0  0  0  0  0  0
   10.1297   -1.6575   23.2324 C   0  0  0  0  0  0  0  0  0  0  0  0
    9.4684   -1.6929   26.7263 F   0  0  0  0  0  0  0  0  0  0  0  0
    7.7963   -7.7906   17.9837 C   0  0  0  0  0  0  0  0  0  0  0  0
   10.5884   -3.0725   16.7902 O   0  0  0  0  0  0  0  0  0  0  0  0
   10.4323   -5.3494   20.3516 C   0  0  0  0  0  0  0  0  0  0  0  0
    7.1156   -7.5454   16.8218 C   0  0  0  0  0  0  0  0  0  0  0  0
   10.3885   -4.4388   19.2773 C   0  0  0  0  0  0  0  0  0  0  0  0
    4.5160   -9.3822   15.0841 C   0  0  0  0  0  0  0  0  0  0  0  0
  1  3  4  0
  1 24  4  0
  2  6  4  0
  2 15  4  0
  3  5  4  0
  3  6  4  0
  4 21  4  0
  4 29  4  0
  5 15  4  0
  5 28  1  0
  6 16  4  0
  7 18  4  0
  7 26  4  0
  8 18  1  0
  8 19  4  0
  8 22  4  0
  9 12  4  0
  9 19  4  0
 10 12  4  0
 10 22  4  0
 11 20  4  0
 11 21  4  0
 12 23  1  0
 13 20  4  0
 13 29  4  0
 14 17  4  0
 14 28  4  0
 15 25  2  0
 16 27  4  0
 17 18  4  0
 20 27  1  0
 24 27  4  0
 26 28  4  0
M  END
$$$$

 Created by Python create_sdf_string function

 29 33  0  0  0  0  0  0  0  0999 V2000
    8.8270   -7.0288   18.4251 C   0  0  0  0  0  0  0  0  0  0  0  0
    9.1576   -4.6236   15.8860 O   0  0  0  0  0  0  0  0  0  0  0  0
    9.1509   -5.9108   17.7177 C   0  0  0  0  0  0  0  0  0  0  0  0
    3.6373   -9.5349   16.0582 N   0  0  0  0  0  0  0  0  0  0  0  0
    9.9275   -4.8001   18.0438 N   0  0  0  0  0  0  0  0  0  0  0  0
    8.5908   -5.7425   16.4412 C   0  0  0  0  0  0  0  0  0  0  0  0
   10.5993   -4.8981   21.6068 C   0  0  0  0  0  0  0  0  0  0  0  0
   10.4258   -3.0106   23.0998 C   0  0  0  0  0  0  0  0  0  0  0  0
   10.2148   -3.4364   25.4200 C   0  0  0  0  0  0  0  0  0  0  0  0
    9.7853   -1.1840   24.4927 C   0  0  0  0  0  0  0  0  0  0  0  0
    5.0276   -8.5227   17.5352 C   0  0  0  0  0  0  0  0  0  0  0  0
    9.8187   -2.0895   25.5800 C   0  0  0  0  0  0  0  0  0  0  0  0
    5.6473   -8.7216   15.3158 C   0  0  0  0  0  0  0  0  0  0  0  0
   10.7581   -3.1233   19.4720 N   0  0  0  0  0  0  0  0  0  0  0  0
    9.9571   -4.0573   16.8866 C   0  0  0  0  0  0  0  0  0  0  0  0
    7.6213   -6.5618   16.0087 C   0  0  0  0  0  0  0  0  0  0  0  0
   10.8583   -2.6527   20.7222 C   0  0  0  0  0  0  0  0  0  0  0  0
   10.6412   -3.5089   21.7936 C   0  0  0  0  0  0  0  0  0  0  0  0
   10.4972   -3.8968   24.1589 C   0  0  0  0  0  0  0  0  0  0  0  0
    5.9260   -8.2736   16.5517 C   0  0  0  0  0  0  0  0  0  0  0  0
    3.8816   -9.1166   17.2493 C   0  0  0  0  0  0  0  0  0  0  0  0
   10.1297   -1.6575   23.2324 C   0  0  0  0  0  0  0  0  0  0  0  0
    9.4684   -1.6929   26.7263 F   0  0  0  0  0  0  0  0  0  0  0  0
    7.7963   -7.7906   17.9837 C   0  0  0  0  0  0  0  0  0  0  0  0
   10.5884   -3.0725   16.7902 O   0  0  0  0  0  0  0  0  0  0  0  0
   10.4323   -5.3494   20.3516 C   0  0  0  0  0  0  0  0  0  0  0  0
    7.1156   -7.5454   16.8218 C   0  0  0  0  0  0  0  0  0  0  0  0
   10.3885   -4.4388   19.2773 C   0  0  0  0  0  0  0  0  0  0  0  0
    4.5160   -9.3822   15.0841 C   0  0  0  0  0  0  0  0  0  0  0  0
  1  3  4  0
  1 24  4  0
  2  6  4  0
  2 15  4  0
  3  5  4  0
  3  6  4  0
  4 21  4  0
  4 29  4  0
  5 15  4  0
  5 28  1  0
  6 16  4  0
  7 18  4  0
  7 26  4  0
  8 18  1  0
  8 19  4  0
  8 22  4  0
  9 12  4  0
  9 19  4  0
 10 12  4  0
 10 22  4  0
 11 20  4  0
 11 21  4  0
 12 23  1  0
 13 20  4  0
 13 29  4  0
 14 17  4  0
 14 28  4  0
 15 25  2  0
 16 27  4  0
 17 18  4  0
 20 27  1  0
 24 27  4  0
 26 28  4  0
M  END
$$$$

 Created by Python create_sdf_string function

 29 33  0  0  0  0  0  0  0  0999 V2000
    8.8270   -7.0288   18.4251 C   0  0  0  0  0  0  0  0  0  0  0  0
    9.1576   -4.6236   15.8860 O   0  0  0  0  0  0  0  0  0  0  0  0
    9.1509   -5.9108   17.7177 C   0  0  0  0  0  0  0  0  0  0  0  0
    3.6373   -9.5349   16.0582 N   0  0  0  0  0  0  0  0  0  0  0  0
    9.9275   -4.8001   18.0438 N   0  0  0  0  0  0  0  0  0  0  0  0
    8.5908   -5.7425   16.4412 C   0  0  0  0  0  0  0  0  0  0  0  0
   10.5993   -4.8981   21.6068 C   0  0  0  0  0  0  0  0  0  0  0  0
   10.4258   -3.0106   23.0998 C   0  0  0  0  0  0  0  0  0  0  0  0
   10.2148   -3.4364   25.4200 C   0  0  0  0  0  0  0  0  0  0  0  0
    9.7853   -1.1840   24.4927 C   0  0  0  0  0  0  0  0  0  0  0  0
    5.0276   -8.5227   17.5352 C   0  0  0  0  0  0  0  0  0  0  0  0
    9.8187   -2.0895   25.5800 C   0  0  0  0  0  0  0  0  0  0  0  0
    5.6473   -8.7216   15.3158 C   0  0  0  0  0  0  0  0  0  0  0  0
   10.7581   -3.1233   19.4720 N   0  0  0  0  0  0  0  0  0  0  0  0
    9.9571   -4.0573   16.8866 C   0  0  0  0  0  0  0  0  0  0  0  0
    7.6213   -6.5618   16.0087 C   0  0  0  0  0  0  0  0  0  0  0  0
   10.8583   -2.6527   20.7222 C   0  0  0  0  0  0  0  0  0  0  0  0
   10.6412   -3.5089   21.7936 C   0  0  0  0  0  0  0  0  0  0  0  0
   10.4972   -3.8968   24.1589 C   0  0  0  0  0  0  0  0  0  0  0  0
    5.9260   -8.2736   16.5517 C   0  0  0  0  0  0  0  0  0  0  0  0
    3.8816   -9.1166   17.2493 C   0  0  0  0  0  0  0  0  0  0  0  0
   10.1297   -1.6575   23.2324 C   0  0  0  0  0  0  0  0  0  0  0  0
    9.4684   -1.6929   26.7263 F   0  0  0  0  0  0  0  0  0  0  0  0
    7.7963   -7.7906   17.9837 C   0  0  0  0  0  0  0  0  0  0  0  0
   10.5884   -3.0725   16.7902 O   0  0  0  0  0  0  0  0  0  0  0  0
   10.4323   -5.3494   20.3516 C   0  0  0  0  0  0  0  0  0  0  0  0
    7.1156   -7.5454   16.8218 C   0  0  0  0  0  0  0  0  0  0  0  0
   10.3885   -4.4388   19.2773 C   0  0  0  0  0  0  0  0  0  0  0  0
    4.5160   -9.3822   15.0841 C   0  0  0  0  0  0  0  0  0  0  0  0
  1  3  4  0
  1 24  4  0
  2  6  4  0
  2 15  4  0
  3  5  4  0
  3  6  4  0
  4 21  4  0
  4 29  4  0
  5 15  4  0
  5 28  1  0
  6 16  4  0
  7 18  4  0
  7 26  4  0
  8 18  1  0
  8 19  4  0
  8 22  4  0
  9 12  4  0
  9 19  4  0
 10 12  4  0
 10 22  4  0
 11 20  4  0
 11 21  4  0
 12 23  1  0
 13 20  4  0
 13 29  4  0
 14 17  4  0
 14 28  4  0
 15 25  2  0
 16 27  4  0
 17 18  4  0
 20 27  1  0
 24 27  4  0
 26 28  4  0
M  END
$$$$

 Created by Python create_sdf_string function

 29 33  0  0  0  0  0  0  0  0999 V2000
    8.8270   -7.0288   18.4251 C   0  0  0  0  0  0  0  0  0  0  0  0
    9.1576   -4.6236   15.8860 O   0  0  0  0  0  0  0  0  0  0  0  0
    9.1509   -5.9108   17.7177 C   0  0  0  0  0  0  0  0  0  0  0  0
    3.6373   -9.5349   16.0582 N   0  0  0  0  0  0  0  0  0  0  0  0
    9.9275   -4.8001   18.0438 N   0  0  0  0  0  0  0  0  0  0  0  0
    8.5908   -5.7425   16.4412 C   0  0  0  0  0  0  0  0  0  0  0  0
   10.5993   -4.8981   21.6068 C   0  0  0  0  0  0  0  0  0  0  0  0
   10.4258   -3.0106   23.0998 C   0  0  0  0  0  0  0  0  0  0  0  0
   10.2148   -3.4364   25.4200 C   0  0  0  0  0  0  0  0  0  0  0  0
    9.7853   -1.1840   24.4927 C   0  0  0  0  0  0  0  0  0  0  0  0
    5.0276   -8.5227   17.5352 C   0  0  0  0  0  0  0  0  0  0  0  0
    9.8187   -2.0895   25.5800 C   0  0  0  0  0  0  0  0  0  0  0  0
    5.6473   -8.7216   15.3158 C   0  0  0  0  0  0  0  0  0  0  0  0
   10.7581   -3.1233   19.4720 N   0  0  0  0  0  0  0  0  0  0  0  0
    9.9571   -4.0573   16.8866 C   0  0  0  0  0  0  0  0  0  0  0  0
    7.6213   -6.5618   16.0087 C   0  0  0  0  0  0  0  0  0  0  0  0
   10.8583   -2.6527   20.7222 C   0  0  0  0  0  0  0  0  0  0  0  0
   10.6412   -3.5089   21.7936 C   0  0  0  0  0  0  0  0  0  0  0  0
   10.4972   -3.8968   24.1589 C   0  0  0  0  0  0  0  0  0  0  0  0
    5.9260   -8.2736   16.5517 C   0  0  0  0  0  0  0  0  0  0  0  0
    3.8816   -9.1166   17.2493 C   0  0  0  0  0  0  0  0  0  0  0  0
   10.1297   -1.6575   23.2324 C   0  0  0  0  0  0  0  0  0  0  0  0
    9.4684   -1.6929   26.7263 F   0  0  0  0  0  0  0  0  0  0  0  0
    7.7963   -7.7906   17.9837 C   0  0  0  0  0  0  0  0  0  0  0  0
   10.5884   -3.0725   16.7902 O   0  0  0  0  0  0  0  0  0  0  0  0
   10.4323   -5.3494   20.3516 C   0  0  0  0  0  0  0  0  0  0  0  0
    7.1156   -7.5454   16.8218 C   0  0  0  0  0  0  0  0  0  0  0  0
   10.3885   -4.4388   19.2773 C   0  0  0  0  0  0  0  0  0  0  0  0
    4.5160   -9.3822   15.0841 C   0  0  0  0  0  0  0  0  0  0  0  0
  1  3  4  0
  1 24  4  0
  2  6  4  0
  2 15  4  0
  3  5  4  0
  3  6  4  0
  4 21  4  0
  4 29  4  0
  5 15  4  0
  5 28  1  0
  6 16  4  0
  7 18  4  0
  7 26  4  0
  8 18  1  0
  8 19  4  0
  8 22  4  0
  9 12  4  0
  9 19  4  0
 10 12  4  0
 10 22  4  0
 11 20  4  0
 11 21  4  0
 12 23  1  0
 13 20  4  0
 13 29  4  0
 14 17  4  0
 14 28  4  0
 15 25  2  0
 16 27  4  0
 17 18  4  0
 20 27  1  0
 24 27  4  0
 26 28  4  0
M  END
$$$$

 Created by Python create_sdf_string function

 29 33  0  0  0  0  0  0  0  0999 V2000
    8.8270   -7.0288   18.4251 C   0  0  0  0  0  0  0  0  0  0  0  0
    9.1576   -4.6236   15.8860 O   0  0  0  0  0  0  0  0  0  0  0  0
    9.1509   -5.9108   17.7177 C   0  0  0  0  0  0  0  0  0  0  0  0
    3.6373   -9.5349   16.0582 N   0  0  0  0  0  0  0  0  0  0  0  0
    9.9275   -4.8001   18.0438 N   0  0  0  0  0  0  0  0  0  0  0  0
    8.5908   -5.7425   16.4412 C   0  0  0  0  0  0  0  0  0  0  0  0
   10.5993   -4.8981   21.6068 C   0  0  0  0  0  0  0  0  0  0  0  0
   10.4258   -3.0106   23.0998 C   0  0  0  0  0  0  0  0  0  0  0  0
   10.2148   -3.4364   25.4200 C   0  0  0  0  0  0  0  0  0  0  0  0
    9.7853   -1.1840   24.4927 C   0  0  0  0  0  0  0  0  0  0  0  0
    5.0276   -8.5227   17.5352 C   0  0  0  0  0  0  0  0  0  0  0  0
    9.8187   -2.0895   25.5800 C   0  0  0  0  0  0  0  0  0  0  0  0
    5.6473   -8.7216   15.3158 C   0  0  0  0  0  0  0  0  0  0  0  0
   10.7581   -3.1233   19.4720 N   0  0  0  0  0  0  0  0  0  0  0  0
    9.9571   -4.0573   16.8866 C   0  0  0  0  0  0  0  0  0  0  0  0
    7.6213   -6.5618   16.0087 C   0  0  0  0  0  0  0  0  0  0  0  0
   10.8583   -2.6527   20.7222 C   0  0  0  0  0  0  0  0  0  0  0  0
   10.6412   -3.5089   21.7936 C   0  0  0  0  0  0  0  0  0  0  0  0
   10.4972   -3.8968   24.1589 C   0  0  0  0  0  0  0  0  0  0  0  0
    5.9260   -8.2736   16.5517 C   0  0  0  0  0  0  0  0  0  0  0  0
    3.8816   -9.1166   17.2493 C   0  0  0  0  0  0  0  0  0  0  0  0
   10.1297   -1.6575   23.2324 C   0  0  0  0  0  0  0  0  0  0  0  0
    9.4684   -1.6929   26.7263 F   0  0  0  0  0  0  0  0  0  0  0  0
    7.7963   -7.7906   17.9837 C   0  0  0  0  0  0  0  0  0  0  0  0
   10.5884   -3.0725   16.7902 O   0  0  0  0  0  0  0  0  0  0  0  0
   10.4323   -5.3494   20.3516 C   0  0  0  0  0  0  0  0  0  0  0  0
    7.1156   -7.5454   16.8218 C   0  0  0  0  0  0  0  0  0  0  0  0
   10.3885   -4.4388   19.2773 C   0  0  0  0  0  0  0  0  0  0  0  0
    4.5160   -9.3822   15.0841 C   0  0  0  0  0  0  0  0  0  0  0  0
  1  3  4  0
  1 24  4  0
  2  6  4  0
  2 15  4  0
  3  5  4  0
  3  6  4  0
  4 21  4  0
  4 29  4  0
  5 15  4  0
  5 28  1  0
  6 16  4  0
  7 18  4  0
  7 26  4  0
  8 18  1  0
  8 19  4  0
  8 22  4  0
  9 12  4  0
  9 19  4  0
 10 12  4  0
 10 22  4  0
 11 20  4  0
 11 21  4  0
 12 23  1  0
 13 20  4  0
 13 29  4  0
 14 17  4  0
 14 28  4  0
 15 25  2  0
 16 27  4  0
 17 18  4  0
 20 27  1  0
 24 27  4  0
 26 28  4  0
M  END
$$$$

 Created by Python create_sdf_string function

 29 33  0  0  0  0  0  0  0  0999 V2000
    8.8270   -7.0288   18.4251 C   0  0  0  0  0  0  0  0  0  0  0  0
    9.1576   -4.6236   15.8860 O   0  0  0  0  0  0  0  0  0  0  0  0
    9.1509   -5.9108   17.7177 C   0  0  0  0  0  0  0  0  0  0  0  0
    3.6373   -9.5349   16.0582 N   0  0  0  0  0  0  0  0  0  0  0  0
    9.9275   -4.8001   18.0438 N   0  0  0  0  0  0  0  0  0  0  0  0
    8.5908   -5.7425   16.4412 C   0  0  0  0  0  0  0  0  0  0  0  0
   10.5993   -4.8981   21.6068 C   0  0  0  0  0  0  0  0  0  0  0  0
   10.4258   -3.0106   23.0998 C   0  0  0  0  0  0  0  0  0  0  0  0
   10.2148   -3.4364   25.4200 C   0  0  0  0  0  0  0  0  0  0  0  0
    9.7853   -1.1840   24.4927 C   0  0  0  0  0  0  0  0  0  0  0  0
    5.0276   -8.5227   17.5352 C   0  0  0  0  0  0  0  0  0  0  0  0
    9.8187   -2.0895   25.5800 C   0  0  0  0  0  0  0  0  0  0  0  0
    5.6473   -8.7216   15.3158 C   0  0  0  0  0  0  0  0  0  0  0  0
   10.7581   -3.1233   19.4720 N   0  0  0  0  0  0  0  0  0  0  0  0
    9.9571   -4.0573   16.8866 C   0  0  0  0  0  0  0  0  0  0  0  0
    7.6213   -6.5618   16.0087 C   0  0  0  0  0  0  0  0  0  0  0  0
   10.8583   -2.6527   20.7222 C   0  0  0  0  0  0  0  0  0  0  0  0
   10.6412   -3.5089   21.7936 C   0  0  0  0  0  0  0  0  0  0  0  0
   10.4972   -3.8968   24.1589 C   0  0  0  0  0  0  0  0  0  0  0  0
    5.9260   -8.2736   16.5517 C   0  0  0  0  0  0  0  0  0  0  0  0
    3.8816   -9.1166   17.2493 C   0  0  0  0  0  0  0  0  0  0  0  0
   10.1297   -1.6575   23.2324 C   0  0  0  0  0  0  0  0  0  0  0  0
    9.4684   -1.6929   26.7263 F   0  0  0  0  0  0  0  0  0  0  0  0
    7.7963   -7.7906   17.9837 C   0  0  0  0  0  0  0  0  0  0  0  0
   10.5884   -3.0725   16.7902 O   0  0  0  0  0  0  0  0  0  0  0  0
   10.4323   -5.3494   20.3516 C   0  0  0  0  0  0  0  0  0  0  0  0
    7.1156   -7.5454   16.8218 C   0  0  0  0  0  0  0  0  0  0  0  0
   10.3885   -4.4388   19.2773 C   0  0  0  0  0  0  0  0  0  0  0  0
    4.5160   -9.3822   15.0841 C   0  0  0  0  0  0  0  0  0  0  0  0
  1  3  4  0
  1 24  4  0
  2  6  4  0
  2 15  4  0
  3  5  4  0
  3  6  4  0
  4 21  4  0
  4 29  4  0
  5 15  4  0
  5 28  1  0
  6 16  4  0
  7 18  4  0
  7 26  4  0
  8 18  1  0
  8 19  4  0
  8 22  4  0
  9 12  4  0
  9 19  4  0
 10 12  4  0
 10 22  4  0
 11 20  4  0
 11 21  4  0
 12 23  1  0
 13 20  4  0
 13 29  4  0
 14 17  4  0
 14 28  4  0
 15 25  2  0
 16 27  4  0
 17 18  4  0
 20 27  1  0
 24 27  4  0
 26 28  4  0
M  END
$$$$

 Created by Python create_sdf_string function

 29 33  0  0  0  0  0  0  0  0999 V2000
    8.8270   -7.0288   18.4251 C   0  0  0  0  0  0  0  0  0  0  0  0
    9.1576   -4.6236   15.8860 O   0  0  0  0  0  0  0  0  0  0  0  0
    9.1509   -5.9108   17.7177 C   0  0  0  0  0  0  0  0  0  0  0  0
    3.6373   -9.5349   16.0582 N   0  0  0  0  0  0  0  0  0  0  0  0
    9.9275   -4.8001   18.0438 N   0  0  0  0  0  0  0  0  0  0  0  0
    8.5908   -5.7425   16.4412 C   0  0  0  0  0  0  0  0  0  0  0  0
   10.5993   -4.8981   21.6068 C   0  0  0  0  0  0  0  0  0  0  0  0
   10.4258   -3.0106   23.0998 C   0  0  0  0  0  0  0  0  0  0  0  0
   10.2148   -3.4364   25.4200 C   0  0  0  0  0  0  0  0  0  0  0  0
    9.7853   -1.1840   24.4927 C   0  0  0  0  0  0  0  0  0  0  0  0
    5.0276   -8.5227   17.5352 C   0  0  0  0  0  0  0  0  0  0  0  0
    9.8187   -2.0895   25.5800 C   0  0  0  0  0  0  0  0  0  0  0  0
    5.6473   -8.7216   15.3158 C   0  0  0  0  0  0  0  0  0  0  0  0
   10.7581   -3.1233   19.4720 N   0  0  0  0  0  0  0  0  0  0  0  0
    9.9571   -4.0573   16.8866 C   0  0  0  0  0  0  0  0  0  0  0  0
    7.6213   -6.5618   16.0087 C   0  0  0  0  0  0  0  0  0  0  0  0
   10.8583   -2.6527   20.7222 C   0  0  0  0  0  0  0  0  0  0  0  0
   10.6412   -3.5089   21.7936 C   0  0  0  0  0  0  0  0  0  0  0  0
   10.4972   -3.8968   24.1589 C   0  0  0  0  0  0  0  0  0  0  0  0
    5.9260   -8.2736   16.5517 C   0  0  0  0  0  0  0  0  0  0  0  0
    3.8816   -9.1166   17.2493 C   0  0  0  0  0  0  0  0  0  0  0  0
   10.1297   -1.6575   23.2324 C   0  0  0  0  0  0  0  0  0  0  0  0
    9.4684   -1.6929   26.7263 F   0  0  0  0  0  0  0  0  0  0  0  0
    7.7963   -7.7906   17.9837 C   0  0  0  0  0  0  0  0  0  0  0  0
   10.5884   -3.0725   16.7902 O   0  0  0  0  0  0  0  0  0  0  0  0
   10.4323   -5.3494   20.3516 C   0  0  0  0  0  0  0  0  0  0  0  0
    7.1156   -7.5454   16.8218 C   0  0  0  0  0  0  0  0  0  0  0  0
   10.3885   -4.4388   19.2773 C   0  0  0  0  0  0  0  0  0  0  0  0
    4.5160   -9.3822   15.0841 C   0  0  0  0  0  0  0  0  0  0  0  0
  1  3  4  0
  1 24  4  0
  2  6  4  0
  2 15  4  0
  3  5  4  0
  3  6  4  0
  4 21  4  0
  4 29  4  0
  5 15  4  0
  5 28  1  0
  6 16  4  0
  7 18  4  0
  7 26  4  0
  8 18  1  0
  8 19  4  0
  8 22  4  0
  9 12  4  0
  9 19  4  0
 10 12  4  0
 10 22  4  0
 11 20  4  0
 11 21  4  0
 12 23  1  0
 13 20  4  0
 13 29  4  0
 14 17  4  0
 14 28  4  0
 15 25  2  0
 16 27  4  0
 17 18  4  0
 20 27  1  0
 24 27  4  0
 26 28  4  0
M  END
$$$$

 Created by Python create_sdf_string function

 29 33  0  0  0  0  0  0  0  0999 V2000
    8.8270   -7.0288   18.4251 C   0  0  0  0  0  0  0  0  0  0  0  0
    9.1576   -4.6236   15.8860 O   0  0  0  0  0  0  0  0  0  0  0  0
    9.1509   -5.9108   17.7177 C   0  0  0  0  0  0  0  0  0  0  0  0
    3.6373   -9.5349   16.0582 N   0  0  0  0  0  0  0  0  0  0  0  0
    9.9275   -4.8001   18.0438 N   0  0  0  0  0  0  0  0  0  0  0  0
    8.5908   -5.7425   16.4412 C   0  0  0  0  0  0  0  0  0  0  0  0
   10.5993   -4.8981   21.6068 C   0  0  0  0  0  0  0  0  0  0  0  0
   10.4258   -3.0106   23.0998 C   0  0  0  0  0  0  0  0  0  0  0  0
   10.2148   -3.4364   25.4200 C   0  0  0  0  0  0  0  0  0  0  0  0
    9.7853   -1.1840   24.4927 C   0  0  0  0  0  0  0  0  0  0  0  0
    5.0276   -8.5227   17.5352 C   0  0  0  0  0  0  0  0  0  0  0  0
    9.8187   -2.0895   25.5800 C   0  0  0  0  0  0  0  0  0  0  0  0
    5.6473   -8.7216   15.3158 C   0  0  0  0  0  0  0  0  0  0  0  0
   10.7581   -3.1233   19.4720 N   0  0  0  0  0  0  0  0  0  0  0  0
    9.9571   -4.0573   16.8866 C   0  0  0  0  0  0  0  0  0  0  0  0
    7.6213   -6.5618   16.0087 C   0  0  0  0  0  0  0  0  0  0  0  0
   10.8583   -2.6527   20.7222 C   0  0  0  0  0  0  0  0  0  0  0  0
   10.6412   -3.5089   21.7936 C   0  0  0  0  0  0  0  0  0  0  0  0
   10.4972   -3.8968   24.1589 C   0  0  0  0  0  0  0  0  0  0  0  0
    5.9260   -8.2736   16.5517 C   0  0  0  0  0  0  0  0  0  0  0  0
    3.8816   -9.1166   17.2493 C   0  0  0  0  0  0  0  0  0  0  0  0
   10.1297   -1.6575   23.2324 C   0  0  0  0  0  0  0  0  0  0  0  0
    9.4684   -1.6929   26.7263 F   0  0  0  0  0  0  0  0  0  0  0  0
    7.7963   -7.7906   17.9837 C   0  0  0  0  0  0  0  0  0  0  0  0
   10.5884   -3.0725   16.7902 O   0  0  0  0  0  0  0  0  0  0  0  0
   10.4323   -5.3494   20.3516 C   0  0  0  0  0  0  0  0  0  0  0  0
    7.1156   -7.5454   16.8218 C   0  0  0  0  0  0  0  0  0  0  0  0
   10.3885   -4.4388   19.2773 C   0  0  0  0  0  0  0  0  0  0  0  0
    4.5160   -9.3822   15.0841 C   0  0  0  0  0  0  0  0  0  0  0  0
  1  3  4  0
  1 24  4  0
  2  6  4  0
  2 15  4  0
  3  5  4  0
  3  6  4  0
  4 21  4  0
  4 29  4  0
  5 15  4  0
  5 28  1  0
  6 16  4  0
  7 18  4  0
  7 26  4  0
  8 18  1  0
  8 19  4  0
  8 22  4  0
  9 12  4  0
  9 19  4  0
 10 12  4  0
 10 22  4  0
 11 20  4  0
 11 21  4  0
 12 23  1  0
 13 20  4  0
 13 29  4  0
 14 17  4  0
 14 28  4  0
 15 25  2  0
 16 27  4  0
 17 18  4  0
 20 27  1  0
 24 27  4  0
 26 28  4  0
M  END
$$$$

 Created by Python create_sdf_string function

 29 33  0  0  0  0  0  0  0  0999 V2000
    8.8270   -7.0288   18.4251 C   0  0  0  0  0  0  0  0  0  0  0  0
    9.1576   -4.6236   15.8860 O   0  0  0  0  0  0  0  0  0  0  0  0
    9.1509   -5.9108   17.7177 C   0  0  0  0  0  0  0  0  0  0  0  0
    3.6373   -9.5349   16.0582 N   0  0  0  0  0  0  0  0  0  0  0  0
    9.9275   -4.8001   18.0438 N   0  0  0  0  0  0  0  0  0  0  0  0
    8.5908   -5.7425   16.4412 C   0  0  0  0  0  0  0  0  0  0  0  0
   10.5993   -4.8981   21.6068 C   0  0  0  0  0  0  0  0  0  0  0  0
   10.4258   -3.0106   23.0998 C   0  0  0  0  0  0  0  0  0  0  0  0
   10.2148   -3.4364   25.4200 C   0  0  0  0  0  0  0  0  0  0  0  0
    9.7853   -1.1840   24.4927 C   0  0  0  0  0  0  0  0  0  0  0  0
    5.0276   -8.5227   17.5352 C   0  0  0  0  0  0  0  0  0  0  0  0
    9.8187   -2.0895   25.5800 C   0  0  0  0  0  0  0  0  0  0  0  0
    5.6473   -8.7216   15.3158 C   0  0  0  0  0  0  0  0  0  0  0  0
   10.7581   -3.1233   19.4720 N   0  0  0  0  0  0  0  0  0  0  0  0
    9.9571   -4.0573   16.8866 C   0  0  0  0  0  0  0  0  0  0  0  0
    7.6213   -6.5618   16.0087 C   0  0  0  0  0  0  0  0  0  0  0  0
   10.8583   -2.6527   20.7222 C   0  0  0  0  0  0  0  0  0  0  0  0
   10.6412   -3.5089   21.7936 C   0  0  0  0  0  0  0  0  0  0  0  0
   10.4972   -3.8968   24.1589 C   0  0  0  0  0  0  0  0  0  0  0  0
    5.9260   -8.2736   16.5517 C   0  0  0  0  0  0  0  0  0  0  0  0
    3.8816   -9.1166   17.2493 C   0  0  0  0  0  0  0  0  0  0  0  0
   10.1297   -1.6575   23.2324 C   0  0  0  0  0  0  0  0  0  0  0  0
    9.4684   -1.6929   26.7263 F   0  0  0  0  0  0  0  0  0  0  0  0
    7.7963   -7.7906   17.9837 C   0  0  0  0  0  0  0  0  0  0  0  0
   10.5884   -3.0725   16.7902 O   0  0  0  0  0  0  0  0  0  0  0  0
   10.4323   -5.3494   20.3516 C   0  0  0  0  0  0  0  0  0  0  0  0
    7.1156   -7.5454   16.8218 C   0  0  0  0  0  0  0  0  0  0  0  0
   10.3885   -4.4388   19.2773 C   0  0  0  0  0  0  0  0  0  0  0  0
    4.5160   -9.3822   15.0841 C   0  0  0  0  0  0  0  0  0  0  0  0
  1  3  4  0
  1 24  4  0
  2  6  4  0
  2 15  4  0
  3  5  4  0
  3  6  4  0
  4 21  4  0
  4 29  4  0
  5 15  4  0
  5 28  1  0
  6 16  4  0
  7 18  4  0
  7 26  4  0
  8 18  1  0
  8 19  4  0
  8 22  4  0
  9 12  4  0
  9 19  4  0
 10 12  4  0
 10 22  4  0
 11 20  4  0
 11 21  4  0
 12 23  1  0
 13 20  4  0
 13 29  4  0
 14 17  4  0
 14 28  4  0
 15 25  2  0
 16 27  4  0
 17 18  4  0
 20 27  1  0
 24 27  4  0
 26 28  4  0
M  END
$$$$

 Created by Python create_sdf_string function

 29 33  0  0  0  0  0  0  0  0999 V2000
    8.8270   -7.0288   18.4251 C   0  0  0  0  0  0  0  0  0  0  0  0
    9.1576   -4.6236   15.8860 O   0  0  0  0  0  0  0  0  0  0  0  0
    9.1509   -5.9108   17.7177 C   0  0  0  0  0  0  0  0  0  0  0  0
    3.6373   -9.5349   16.0582 N   0  0  0  0  0  0  0  0  0  0  0  0
    9.9275   -4.8001   18.0438 N   0  0  0  0  0  0  0  0  0  0  0  0
    8.5908   -5.7425   16.4412 C   0  0  0  0  0  0  0  0  0  0  0  0
   10.5993   -4.8981   21.6068 C   0  0  0  0  0  0  0  0  0  0  0  0
   10.4258   -3.0106   23.0998 C   0  0  0  0  0  0  0  0  0  0  0  0
   10.2148   -3.4364   25.4200 C   0  0  0  0  0  0  0  0  0  0  0  0
    9.7853   -1.1840   24.4927 C   0  0  0  0  0  0  0  0  0  0  0  0
    5.0276   -8.5227   17.5352 C   0  0  0  0  0  0  0  0  0  0  0  0
    9.8187   -2.0895   25.5800 C   0  0  0  0  0  0  0  0  0  0  0  0
    5.6473   -8.7216   15.3158 C   0  0  0  0  0  0  0  0  0  0  0  0
   10.7581   -3.1233   19.4720 N   0  0  0  0  0  0  0  0  0  0  0  0
    9.9571   -4.0573   16.8866 C   0  0  0  0  0  0  0  0  0  0  0  0
    7.6213   -6.5618   16.0087 C   0  0  0  0  0  0  0  0  0  0  0  0
   10.8583   -2.6527   20.7222 C   0  0  0  0  0  0  0  0  0  0  0  0
   10.6412   -3.5089   21.7936 C   0  0  0  0  0  0  0  0  0  0  0  0
   10.4972   -3.8968   24.1589 C   0  0  0  0  0  0  0  0  0  0  0  0
    5.9260   -8.2736   16.5517 C   0  0  0  0  0  0  0  0  0  0  0  0
    3.8816   -9.1166   17.2493 C   0  0  0  0  0  0  0  0  0  0  0  0
   10.1297   -1.6575   23.2324 C   0  0  0  0  0  0  0  0  0  0  0  0
    9.4684   -1.6929   26.7263 F   0  0  0  0  0  0  0  0  0  0  0  0
    7.7963   -7.7906   17.9837 C   0  0  0  0  0  0  0  0  0  0  0  0
   10.5884   -3.0725   16.7902 O   0  0  0  0  0  0  0  0  0  0  0  0
   10.4323   -5.3494   20.3516 C   0  0  0  0  0  0  0  0  0  0  0  0
    7.1156   -7.5454   16.8218 C   0  0  0  0  0  0  0  0  0  0  0  0
   10.3885   -4.4388   19.2773 C   0  0  0  0  0  0  0  0  0  0  0  0
    4.5160   -9.3822   15.0841 C   0  0  0  0  0  0  0  0  0  0  0  0
  1  3  4  0
  1 24  4  0
  2  6  4  0
  2 15  4  0
  3  5  4  0
  3  6  4  0
  4 21  4  0
  4 29  4  0
  5 15  4  0
  5 28  1  0
  6 16  4  0
  7 18  4  0
  7 26  4  0
  8 18  1  0
  8 19  4  0
  8 22  4  0
  9 12  4  0
  9 19  4  0
 10 12  4  0
 10 22  4  0
 11 20  4  0
 11 21  4  0
 12 23  1  0
 13 20  4  0
 13 29  4  0
 14 17  4  0
 14 28  4  0
 15 25  2  0
 16 27  4  0
 17 18  4  0
 20 27  1  0
 24 27  4  0
 26 28  4  0
M  END
$$$$

 Created by Python create_sdf_string function

 29 33  0  0  0  0  0  0  0  0999 V2000
    8.8270   -7.0288   18.4251 C   0  0  0  0  0  0  0  0  0  0  0  0
    9.1576   -4.6236   15.8860 O   0  0  0  0  0  0  0  0  0  0  0  0
    9.1509   -5.9108   17.7177 C   0  0  0  0  0  0  0  0  0  0  0  0
    3.6373   -9.5349   16.0582 N   0  0  0  0  0  0  0  0  0  0  0  0
    9.9275   -4.8001   18.0438 N   0  0  0  0  0  0  0  0  0  0  0  0
    8.5908   -5.7425   16.4412 C   0  0  0  0  0  0  0  0  0  0  0  0
   10.5993   -4.8981   21.6068 C   0  0  0  0  0  0  0  0  0  0  0  0
   10.4258   -3.0106   23.0998 C   0  0  0  0  0  0  0  0  0  0  0  0
   10.2148   -3.4364   25.4200 C   0  0  0  0  0  0  0  0  0  0  0  0
    9.7853   -1.1840   24.4927 C   0  0  0  0  0  0  0  0  0  0  0  0
    5.0276   -8.5227   17.5352 C   0  0  0  0  0  0  0  0  0  0  0  0
    9.8187   -2.0895   25.5800 C   0  0  0  0  0  0  0  0  0  0  0  0
    5.6473   -8.7216   15.3158 C   0  0  0  0  0  0  0  0  0  0  0  0
   10.7581   -3.1233   19.4720 N   0  0  0  0  0  0  0  0  0  0  0  0
    9.9571   -4.0573   16.8866 C   0  0  0  0  0  0  0  0  0  0  0  0
    7.6213   -6.5618   16.0087 C   0  0  0  0  0  0  0  0  0  0  0  0
   10.8583   -2.6527   20.7222 C   0  0  0  0  0  0  0  0  0  0  0  0
   10.6412   -3.5089   21.7936 C   0  0  0  0  0  0  0  0  0  0  0  0
   10.4972   -3.8968   24.1589 C   0  0  0  0  0  0  0  0  0  0  0  0
    5.9260   -8.2736   16.5517 C   0  0  0  0  0  0  0  0  0  0  0  0
    3.8816   -9.1166   17.2493 C   0  0  0  0  0  0  0  0  0  0  0  0
   10.1297   -1.6575   23.2324 C   0  0  0  0  0  0  0  0  0  0  0  0
    9.4684   -1.6929   26.7263 F   0  0  0  0  0  0  0  0  0  0  0  0
    7.7963   -7.7906   17.9837 C   0  0  0  0  0  0  0  0  0  0  0  0
   10.5884   -3.0725   16.7902 O   0  0  0  0  0  0  0  0  0  0  0  0
   10.4323   -5.3494   20.3516 C   0  0  0  0  0  0  0  0  0  0  0  0
    7.1156   -7.5454   16.8218 C   0  0  0  0  0  0  0  0  0  0  0  0
   10.3885   -4.4388   19.2773 C   0  0  0  0  0  0  0  0  0  0  0  0
    4.5160   -9.3822   15.0841 C   0  0  0  0  0  0  0  0  0  0  0  0
  1  3  4  0
  1 24  4  0
  2  6  4  0
  2 15  4  0
  3  5  4  0
  3  6  4  0
  4 21  4  0
  4 29  4  0
  5 15  4  0
  5 28  1  0
  6 16  4  0
  7 18  4  0
  7 26  4  0
  8 18  1  0
  8 19  4  0
  8 22  4  0
  9 12  4  0
  9 19  4  0
 10 12  4  0
 10 22  4  0
 11 20  4  0
 11 21  4  0
 12 23  1  0
 13 20  4  0
 13 29  4  0
 14 17  4  0
 14 28  4  0
 15 25  2  0
 16 27  4  0
 17 18  4  0
 20 27  1  0
 24 27  4  0
 26 28  4  0
M  END
$$$$

 Created by Python create_sdf_string function

 29 33  0  0  0  0  0  0  0  0999 V2000
    8.8270   -7.0288   18.4251 C   0  0  0  0  0  0  0  0  0  0  0  0
    9.1576   -4.6236   15.8860 O   0  0  0  0  0  0  0  0  0  0  0  0
    9.1509   -5.9108   17.7177 C   0  0  0  0  0  0  0  0  0  0  0  0
    3.6373   -9.5349   16.0582 N   0  0  0  0  0  0  0  0  0  0  0  0
    9.9275   -4.8001   18.0438 N   0  0  0  0  0  0  0  0  0  0  0  0
    8.5908   -5.7425   16.4412 C   0  0  0  0  0  0  0  0  0  0  0  0
   10.5993   -4.8981   21.6068 C   0  0  0  0  0  0  0  0  0  0  0  0
   10.4258   -3.0106   23.0998 C   0  0  0  0  0  0  0  0  0  0  0  0
   10.2148   -3.4364   25.4200 C   0  0  0  0  0  0  0  0  0  0  0  0
    9.7853   -1.1840   24.4927 C   0  0  0  0  0  0  0  0  0  0  0  0
    5.0276   -8.5227   17.5352 C   0  0  0  0  0  0  0  0  0  0  0  0
    9.8187   -2.0895   25.5800 C   0  0  0  0  0  0  0  0  0  0  0  0
    5.6473   -8.7216   15.3158 C   0  0  0  0  0  0  0  0  0  0  0  0
   10.7581   -3.1233   19.4720 N   0  0  0  0  0  0  0  0  0  0  0  0
    9.9571   -4.0573   16.8866 C   0  0  0  0  0  0  0  0  0  0  0  0
    7.6213   -6.5618   16.0087 C   0  0  0  0  0  0  0  0  0  0  0  0
   10.8583   -2.6527   20.7222 C   0  0  0  0  0  0  0  0  0  0  0  0
   10.6412   -3.5089   21.7936 C   0  0  0  0  0  0  0  0  0  0  0  0
   10.4972   -3.8968   24.1589 C   0  0  0  0  0  0  0  0  0  0  0  0
    5.9260   -8.2736   16.5517 C   0  0  0  0  0  0  0  0  0  0  0  0
    3.8816   -9.1166   17.2493 C   0  0  0  0  0  0  0  0  0  0  0  0
   10.1297   -1.6575   23.2324 C   0  0  0  0  0  0  0  0  0  0  0  0
    9.4684   -1.6929   26.7263 F   0  0  0  0  0  0  0  0  0  0  0  0
    7.7963   -7.7906   17.9837 C   0  0  0  0  0  0  0  0  0  0  0  0
   10.5884   -3.0725   16.7902 O   0  0  0  0  0  0  0  0  0  0  0  0
   10.4323   -5.3494   20.3516 C   0  0  0  0  0  0  0  0  0  0  0  0
    7.1156   -7.5454   16.8218 C   0  0  0  0  0  0  0  0  0  0  0  0
   10.3885   -4.4388   19.2773 C   0  0  0  0  0  0  0  0  0  0  0  0
    4.5160   -9.3822   15.0841 C   0  0  0  0  0  0  0  0  0  0  0  0
  1  3  4  0
  1 24  4  0
  2  6  4  0
  2 15  4  0
  3  5  4  0
  3  6  4  0
  4 21  4  0
  4 29  4  0
  5 15  4  0
  5 28  1  0
  6 16  4  0
  7 18  4  0
  7 26  4  0
  8 18  1  0
  8 19  4  0
  8 22  4  0
  9 12  4  0
  9 19  4  0
 10 12  4  0
 10 22  4  0
 11 20  4  0
 11 21  4  0
 12 23  1  0
 13 20  4  0
 13 29  4  0
 14 17  4  0
 14 28  4  0
 15 25  2  0
 16 27  4  0
 17 18  4  0
 20 27  1  0
 24 27  4  0
 26 28  4  0
M  END
$$$$

 Created by Python create_sdf_string function

 29 33  0  0  0  0  0  0  0  0999 V2000
    8.8270   -7.0288   18.4251 C   0  0  0  0  0  0  0  0  0  0  0  0
    9.1576   -4.6236   15.8860 O   0  0  0  0  0  0  0  0  0  0  0  0
    9.1509   -5.9108   17.7177 C   0  0  0  0  0  0  0  0  0  0  0  0
    3.6373   -9.5349   16.0582 N   0  0  0  0  0  0  0  0  0  0  0  0
    9.9275   -4.8001   18.0438 N   0  0  0  0  0  0  0  0  0  0  0  0
    8.5908   -5.7425   16.4412 C   0  0  0  0  0  0  0  0  0  0  0  0
   10.5993   -4.8981   21.6068 C   0  0  0  0  0  0  0  0  0  0  0  0
   10.4258   -3.0106   23.0998 C   0  0  0  0  0  0  0  0  0  0  0  0
   10.2148   -3.4364   25.4200 C   0  0  0  0  0  0  0  0  0  0  0  0
    9.7853   -1.1840   24.4927 C   0  0  0  0  0  0  0  0  0  0  0  0
    5.0276   -8.5227   17.5352 C   0  0  0  0  0  0  0  0  0  0  0  0
    9.8187   -2.0895   25.5800 C   0  0  0  0  0  0  0  0  0  0  0  0
    5.6473   -8.7216   15.3158 C   0  0  0  0  0  0  0  0  0  0  0  0
   10.7581   -3.1233   19.4720 N   0  0  0  0  0  0  0  0  0  0  0  0
    9.9571   -4.0573   16.8866 C   0  0  0  0  0  0  0  0  0  0  0  0
    7.6213   -6.5618   16.0087 C   0  0  0  0  0  0  0  0  0  0  0  0
   10.8583   -2.6527   20.7222 C   0  0  0  0  0  0  0  0  0  0  0  0
   10.6412   -3.5089   21.7936 C   0  0  0  0  0  0  0  0  0  0  0  0
   10.4972   -3.8968   24.1589 C   0  0  0  0  0  0  0  0  0  0  0  0
    5.9260   -8.2736   16.5517 C   0  0  0  0  0  0  0  0  0  0  0  0
    3.8816   -9.1166   17.2493 C   0  0  0  0  0  0  0  0  0  0  0  0
   10.1297   -1.6575   23.2324 C   0  0  0  0  0  0  0  0  0  0  0  0
    9.4684   -1.6929   26.7263 F   0  0  0  0  0  0  0  0  0  0  0  0
    7.7963   -7.7906   17.9837 C   0  0  0  0  0  0  0  0  0  0  0  0
   10.5884   -3.0725   16.7902 O   0  0  0  0  0  0  0  0  0  0  0  0
   10.4323   -5.3494   20.3516 C   0  0  0  0  0  0  0  0  0  0  0  0
    7.1156   -7.5454   16.8218 C   0  0  0  0  0  0  0  0  0  0  0  0
   10.3885   -4.4388   19.2773 C   0  0  0  0  0  0  0  0  0  0  0  0
    4.5160   -9.3822   15.0841 C   0  0  0  0  0  0  0  0  0  0  0  0
  1  3  4  0
  1 24  4  0
  2  6  4  0
  2 15  4  0
  3  5  4  0
  3  6  4  0
  4 21  4  0
  4 29  4  0
  5 15  4  0
  5 28  1  0
  6 16  4  0
  7 18  4  0
  7 26  4  0
  8 18  1  0
  8 19  4  0
  8 22  4  0
  9 12  4  0
  9 19  4  0
 10 12  4  0
 10 22  4  0
 11 20  4  0
 11 21  4  0
 12 23  1  0
 13 20  4  0
 13 29  4  0
 14 17  4  0
 14 28  4  0
 15 25  2  0
 16 27  4  0
 17 18  4  0
 20 27  1  0
 24 27  4  0
 26 28  4  0
M  END
$$$$

 Created by Python create_sdf_string function

 29 33  0  0  0  0  0  0  0  0999 V2000
    8.8270   -7.0288   18.4251 C   0  0  0  0  0  0  0  0  0  0  0  0
    9.1576   -4.6236   15.8860 O   0  0  0  0  0  0  0  0  0  0  0  0
    9.1509   -5.9108   17.7177 C   0  0  0  0  0  0  0  0  0  0  0  0
    3.6373   -9.5349   16.0582 N   0  0  0  0  0  0  0  0  0  0  0  0
    9.9275   -4.8001   18.0438 N   0  0  0  0  0  0  0  0  0  0  0  0
    8.5908   -5.7425   16.4412 C   0  0  0  0  0  0  0  0  0  0  0  0
   10.5993   -4.8981   21.6068 C   0  0  0  0  0  0  0  0  0  0  0  0
   10.4258   -3.0106   23.0998 C   0  0  0  0  0  0  0  0  0  0  0  0
   10.2148   -3.4364   25.4200 C   0  0  0  0  0  0  0  0  0  0  0  0
    9.7853   -1.1840   24.4927 C   0  0  0  0  0  0  0  0  0  0  0  0
    5.0276   -8.5227   17.5352 C   0  0  0  0  0  0  0  0  0  0  0  0
    9.8187   -2.0895   25.5800 C   0  0  0  0  0  0  0  0  0  0  0  0
    5.6473   -8.7216   15.3158 C   0  0  0  0  0  0  0  0  0  0  0  0
   10.7581   -3.1233   19.4720 N   0  0  0  0  0  0  0  0  0  0  0  0
    9.9571   -4.0573   16.8866 C   0  0  0  0  0  0  0  0  0  0  0  0
    7.6213   -6.5618   16.0087 C   0  0  0  0  0  0  0  0  0  0  0  0
   10.8583   -2.6527   20.7222 C   0  0  0  0  0  0  0  0  0  0  0  0
   10.6412   -3.5089   21.7936 C   0  0  0  0  0  0  0  0  0  0  0  0
   10.4972   -3.8968   24.1589 C   0  0  0  0  0  0  0  0  0  0  0  0
    5.9260   -8.2736   16.5517 C   0  0  0  0  0  0  0  0  0  0  0  0
    3.8816   -9.1166   17.2493 C   0  0  0  0  0  0  0  0  0  0  0  0
   10.1297   -1.6575   23.2324 C   0  0  0  0  0  0  0  0  0  0  0  0
    9.4684   -1.6929   26.7263 F   0  0  0  0  0  0  0  0  0  0  0  0
    7.7963   -7.7906   17.9837 C   0  0  0  0  0  0  0  0  0  0  0  0
   10.5884   -3.0725   16.7902 O   0  0  0  0  0  0  0  0  0  0  0  0
   10.4323   -5.3494   20.3516 C   0  0  0  0  0  0  0  0  0  0  0  0
    7.1156   -7.5454   16.8218 C   0  0  0  0  0  0  0  0  0  0  0  0
   10.3885   -4.4388   19.2773 C   0  0  0  0  0  0  0  0  0  0  0  0
    4.5160   -9.3822   15.0841 C   0  0  0  0  0  0  0  0  0  0  0  0
  1  3  4  0
  1 24  4  0
  2  6  4  0
  2 15  4  0
  3  5  4  0
  3  6  4  0
  4 21  4  0
  4 29  4  0
  5 15  4  0
  5 28  1  0
  6 16  4  0
  7 18  4  0
  7 26  4  0
  8 18  1  0
  8 19  4  0
  8 22  4  0
  9 12  4  0
  9 19  4  0
 10 12  4  0
 10 22  4  0
 11 20  4  0
 11 21  4  0
 12 23  1  0
 13 20  4  0
 13 29  4  0
 14 17  4  0
 14 28  4  0
 15 25  2  0
 16 27  4  0
 17 18  4  0
 20 27  1  0
 24 27  4  0
 26 28  4  0
M  END
$$$$

 Created by Python create_sdf_string function

 29 33  0  0  0  0  0  0  0  0999 V2000
    8.8270   -7.0288   18.4251 C   0  0  0  0  0  0  0  0  0  0  0  0
    9.1576   -4.6236   15.8860 O   0  0  0  0  0  0  0  0  0  0  0  0
    9.1509   -5.9108   17.7177 C   0  0  0  0  0  0  0  0  0  0  0  0
    3.6373   -9.5349   16.0582 N   0  0  0  0  0  0  0  0  0  0  0  0
    9.9275   -4.8001   18.0438 N   0  0  0  0  0  0  0  0  0  0  0  0
    8.5908   -5.7425   16.4412 C   0  0  0  0  0  0  0  0  0  0  0  0
   10.5993   -4.8981   21.6068 C   0  0  0  0  0  0  0  0  0  0  0  0
   10.4258   -3.0106   23.0998 C   0  0  0  0  0  0  0  0  0  0  0  0
   10.2148   -3.4364   25.4200 C   0  0  0  0  0  0  0  0  0  0  0  0
    9.7853   -1.1840   24.4927 C   0  0  0  0  0  0  0  0  0  0  0  0
    5.0276   -8.5227   17.5352 C   0  0  0  0  0  0  0  0  0  0  0  0
    9.8187   -2.0895   25.5800 C   0  0  0  0  0  0  0  0  0  0  0  0
    5.6473   -8.7216   15.3158 C   0  0  0  0  0  0  0  0  0  0  0  0
   10.7581   -3.1233   19.4720 N   0  0  0  0  0  0  0  0  0  0  0  0
    9.9571   -4.0573   16.8866 C   0  0  0  0  0  0  0  0  0  0  0  0
    7.6213   -6.5618   16.0087 C   0  0  0  0  0  0  0  0  0  0  0  0
   10.8583   -2.6527   20.7222 C   0  0  0  0  0  0  0  0  0  0  0  0
   10.6412   -3.5089   21.7936 C   0  0  0  0  0  0  0  0  0  0  0  0
   10.4972   -3.8968   24.1589 C   0  0  0  0  0  0  0  0  0  0  0  0
    5.9260   -8.2736   16.5517 C   0  0  0  0  0  0  0  0  0  0  0  0
    3.8816   -9.1166   17.2493 C   0  0  0  0  0  0  0  0  0  0  0  0
   10.1297   -1.6575   23.2324 C   0  0  0  0  0  0  0  0  0  0  0  0
    9.4684   -1.6929   26.7263 F   0  0  0  0  0  0  0  0  0  0  0  0
    7.7963   -7.7906   17.9837 C   0  0  0  0  0  0  0  0  0  0  0  0
   10.5884   -3.0725   16.7902 O   0  0  0  0  0  0  0  0  0  0  0  0
   10.4323   -5.3494   20.3516 C   0  0  0  0  0  0  0  0  0  0  0  0
    7.1156   -7.5454   16.8218 C   0  0  0  0  0  0  0  0  0  0  0  0
   10.3885   -4.4388   19.2773 C   0  0  0  0  0  0  0  0  0  0  0  0
    4.5160   -9.3822   15.0841 C   0  0  0  0  0  0  0  0  0  0  0  0
  1  3  4  0
  1 24  4  0
  2  6  4  0
  2 15  4  0
  3  5  4  0
  3  6  4  0
  4 21  4  0
  4 29  4  0
  5 15  4  0
  5 28  1  0
  6 16  4  0
  7 18  4  0
  7 26  4  0
  8 18  1  0
  8 19  4  0
  8 22  4  0
  9 12  4  0
  9 19  4  0
 10 12  4  0
 10 22  4  0
 11 20  4  0
 11 21  4  0
 12 23  1  0
 13 20  4  0
 13 29  4  0
 14 17  4  0
 14 28  4  0
 15 25  2  0
 16 27  4  0
 17 18  4  0
 20 27  1  0
 24 27  4  0
 26 28  4  0
M  END
$$$$

 Created by Python create_sdf_string function

 29 33  0  0  0  0  0  0  0  0999 V2000
    8.8270   -7.0288   18.4251 C   0  0  0  0  0  0  0  0  0  0  0  0
    9.1576   -4.6236   15.8860 O   0  0  0  0  0  0  0  0  0  0  0  0
    9.1509   -5.9108   17.7177 C   0  0  0  0  0  0  0  0  0  0  0  0
    3.6373   -9.5349   16.0582 N   0  0  0  0  0  0  0  0  0  0  0  0
    9.9275   -4.8001   18.0438 N   0  0  0  0  0  0  0  0  0  0  0  0
    8.5908   -5.7425   16.4412 C   0  0  0  0  0  0  0  0  0  0  0  0
   10.5993   -4.8981   21.6068 C   0  0  0  0  0  0  0  0  0  0  0  0
   10.4258   -3.0106   23.0998 C   0  0  0  0  0  0  0  0  0  0  0  0
   10.2148   -3.4364   25.4200 C   0  0  0  0  0  0  0  0  0  0  0  0
    9.7853   -1.1840   24.4927 C   0  0  0  0  0  0  0  0  0  0  0  0
    5.0276   -8.5227   17.5352 C   0  0  0  0  0  0  0  0  0  0  0  0
    9.8187   -2.0895   25.5800 C   0  0  0  0  0  0  0  0  0  0  0  0
    5.6473   -8.7216   15.3158 C   0  0  0  0  0  0  0  0  0  0  0  0
   10.7581   -3.1233   19.4720 N   0  0  0  0  0  0  0  0  0  0  0  0
    9.9571   -4.0573   16.8866 C   0  0  0  0  0  0  0  0  0  0  0  0
    7.6213   -6.5618   16.0087 C   0  0  0  0  0  0  0  0  0  0  0  0
   10.8583   -2.6527   20.7222 C   0  0  0  0  0  0  0  0  0  0  0  0
   10.6412   -3.5089   21.7936 C   0  0  0  0  0  0  0  0  0  0  0  0
   10.4972   -3.8968   24.1589 C   0  0  0  0  0  0  0  0  0  0  0  0
    5.9260   -8.2736   16.5517 C   0  0  0  0  0  0  0  0  0  0  0  0
    3.8816   -9.1166   17.2493 C   0  0  0  0  0  0  0  0  0  0  0  0
   10.1297   -1.6575   23.2324 C   0  0  0  0  0  0  0  0  0  0  0  0
    9.4684   -1.6929   26.7263 F   0  0  0  0  0  0  0  0  0  0  0  0
    7.7963   -7.7906   17.9837 C   0  0  0  0  0  0  0  0  0  0  0  0
   10.5884   -3.0725   16.7902 O   0  0  0  0  0  0  0  0  0  0  0  0
   10.4323   -5.3494   20.3516 C   0  0  0  0  0  0  0  0  0  0  0  0
    7.1156   -7.5454   16.8218 C   0  0  0  0  0  0  0  0  0  0  0  0
   10.3885   -4.4388   19.2773 C   0  0  0  0  0  0  0  0  0  0  0  0
    4.5160   -9.3822   15.0841 C   0  0  0  0  0  0  0  0  0  0  0  0
  1  3  4  0
  1 24  4  0
  2  6  4  0
  2 15  4  0
  3  5  4  0
  3  6  4  0
  4 21  4  0
  4 29  4  0
  5 15  4  0
  5 28  1  0
  6 16  4  0
  7 18  4  0
  7 26  4  0
  8 18  1  0
  8 19  4  0
  8 22  4  0
  9 12  4  0
  9 19  4  0
 10 12  4  0
 10 22  4  0
 11 20  4  0
 11 21  4  0
 12 23  1  0
 13 20  4  0
 13 29  4  0
 14 17  4  0
 14 28  4  0
 15 25  2  0
 16 27  4  0
 17 18  4  0
 20 27  1  0
 24 27  4  0
 26 28  4  0
M  END
$$$$

 Created by Python create_sdf_string function

 29 33  0  0  0  0  0  0  0  0999 V2000
    8.8270   -7.0288   18.4251 C   0  0  0  0  0  0  0  0  0  0  0  0
    9.1576   -4.6236   15.8860 O   0  0  0  0  0  0  0  0  0  0  0  0
    9.1509   -5.9108   17.7177 C   0  0  0  0  0  0  0  0  0  0  0  0
    3.6373   -9.5349   16.0582 N   0  0  0  0  0  0  0  0  0  0  0  0
    9.9275   -4.8001   18.0438 N   0  0  0  0  0  0  0  0  0  0  0  0
    8.5908   -5.7425   16.4412 C   0  0  0  0  0  0  0  0  0  0  0  0
   10.5993   -4.8981   21.6068 C   0  0  0  0  0  0  0  0  0  0  0  0
   10.4258   -3.0106   23.0998 C   0  0  0  0  0  0  0  0  0  0  0  0
   10.2148   -3.4364   25.4200 C   0  0  0  0  0  0  0  0  0  0  0  0
    9.7853   -1.1840   24.4927 C   0  0  0  0  0  0  0  0  0  0  0  0
    5.0276   -8.5227   17.5352 C   0  0  0  0  0  0  0  0  0  0  0  0
    9.8187   -2.0895   25.5800 C   0  0  0  0  0  0  0  0  0  0  0  0
    5.6473   -8.7216   15.3158 C   0  0  0  0  0  0  0  0  0  0  0  0
   10.7581   -3.1233   19.4720 N   0  0  0  0  0  0  0  0  0  0  0  0
    9.9571   -4.0573   16.8866 C   0  0  0  0  0  0  0  0  0  0  0  0
    7.6213   -6.5618   16.0087 C   0  0  0  0  0  0  0  0  0  0  0  0
   10.8583   -2.6527   20.7222 C   0  0  0  0  0  0  0  0  0  0  0  0
   10.6412   -3.5089   21.7936 C   0  0  0  0  0  0  0  0  0  0  0  0
   10.4972   -3.8968   24.1589 C   0  0  0  0  0  0  0  0  0  0  0  0
    5.9260   -8.2736   16.5517 C   0  0  0  0  0  0  0  0  0  0  0  0
    3.8816   -9.1166   17.2493 C   0  0  0  0  0  0  0  0  0  0  0  0
   10.1297   -1.6575   23.2324 C   0  0  0  0  0  0  0  0  0  0  0  0
    9.4684   -1.6929   26.7263 F   0  0  0  0  0  0  0  0  0  0  0  0
    7.7963   -7.7906   17.9837 C   0  0  0  0  0  0  0  0  0  0  0  0
   10.5884   -3.0725   16.7902 O   0  0  0  0  0  0  0  0  0  0  0  0
   10.4323   -5.3494   20.3516 C   0  0  0  0  0  0  0  0  0  0  0  0
    7.1156   -7.5454   16.8218 C   0  0  0  0  0  0  0  0  0  0  0  0
   10.3885   -4.4388   19.2773 C   0  0  0  0  0  0  0  0  0  0  0  0
    4.5160   -9.3822   15.0841 C   0  0  0  0  0  0  0  0  0  0  0  0
  1  3  4  0
  1 24  4  0
  2  6  4  0
  2 15  4  0
  3  5  4  0
  3  6  4  0
  4 21  4  0
  4 29  4  0
  5 15  4  0
  5 28  1  0
  6 16  4  0
  7 18  4  0
  7 26  4  0
  8 18  1  0
  8 19  4  0
  8 22  4  0
  9 12  4  0
  9 19  4  0
 10 12  4  0
 10 22  4  0
 11 20  4  0
 11 21  4  0
 12 23  1  0
 13 20  4  0
 13 29  4  0
 14 17  4  0
 14 28  4  0
 15 25  2  0
 16 27  4  0
 17 18  4  0
 20 27  1  0
 24 27  4  0
 26 28  4  0
M  END
$$$$

 Created by Python create_sdf_string function

 29 33  0  0  0  0  0  0  0  0999 V2000
    8.8270   -7.0288   18.4251 C   0  0  0  0  0  0  0  0  0  0  0  0
    9.1576   -4.6236   15.8860 O   0  0  0  0  0  0  0  0  0  0  0  0
    9.1509   -5.9108   17.7177 C   0  0  0  0  0  0  0  0  0  0  0  0
    3.6373   -9.5349   16.0582 N   0  0  0  0  0  0  0  0  0  0  0  0
    9.9275   -4.8001   18.0438 N   0  0  0  0  0  0  0  0  0  0  0  0
    8.5908   -5.7425   16.4412 C   0  0  0  0  0  0  0  0  0  0  0  0
   10.5993   -4.8981   21.6068 C   0  0  0  0  0  0  0  0  0  0  0  0
   10.4258   -3.0106   23.0998 C   0  0  0  0  0  0  0  0  0  0  0  0
   10.2148   -3.4364   25.4200 C   0  0  0  0  0  0  0  0  0  0  0  0
    9.7853   -1.1840   24.4927 C   0  0  0  0  0  0  0  0  0  0  0  0
    5.0276   -8.5227   17.5352 C   0  0  0  0  0  0  0  0  0  0  0  0
    9.8187   -2.0895   25.5800 C   0  0  0  0  0  0  0  0  0  0  0  0
    5.6473   -8.7216   15.3158 C   0  0  0  0  0  0  0  0  0  0  0  0
   10.7581   -3.1233   19.4720 N   0  0  0  0  0  0  0  0  0  0  0  0
    9.9571   -4.0573   16.8866 C   0  0  0  0  0  0  0  0  0  0  0  0
    7.6213   -6.5618   16.0087 C   0  0  0  0  0  0  0  0  0  0  0  0
   10.8583   -2.6527   20.7222 C   0  0  0  0  0  0  0  0  0  0  0  0
   10.6412   -3.5089   21.7936 C   0  0  0  0  0  0  0  0  0  0  0  0
   10.4972   -3.8968   24.1589 C   0  0  0  0  0  0  0  0  0  0  0  0
    5.9260   -8.2736   16.5517 C   0  0  0  0  0  0  0  0  0  0  0  0
    3.8816   -9.1166   17.2493 C   0  0  0  0  0  0  0  0  0  0  0  0
   10.1297   -1.6575   23.2324 C   0  0  0  0  0  0  0  0  0  0  0  0
    9.4684   -1.6929   26.7263 F   0  0  0  0  0  0  0  0  0  0  0  0
    7.7963   -7.7906   17.9837 C   0  0  0  0  0  0  0  0  0  0  0  0
   10.5884   -3.0725   16.7902 O   0  0  0  0  0  0  0  0  0  0  0  0
   10.4323   -5.3494   20.3516 C   0  0  0  0  0  0  0  0  0  0  0  0
    7.1156   -7.5454   16.8218 C   0  0  0  0  0  0  0  0  0  0  0  0
   10.3885   -4.4388   19.2773 C   0  0  0  0  0  0  0  0  0  0  0  0
    4.5160   -9.3822   15.0841 C   0  0  0  0  0  0  0  0  0  0  0  0
  1  3  4  0
  1 24  4  0
  2  6  4  0
  2 15  4  0
  3  5  4  0
  3  6  4  0
  4 21  4  0
  4 29  4  0
  5 15  4  0
  5 28  1  0
  6 16  4  0
  7 18  4  0
  7 26  4  0
  8 18  1  0
  8 19  4  0
  8 22  4  0
  9 12  4  0
  9 19  4  0
 10 12  4  0
 10 22  4  0
 11 20  4  0
 11 21  4  0
 12 23  1  0
 13 20  4  0
 13 29  4  0
 14 17  4  0
 14 28  4  0
 15 25  2  0
 16 27  4  0
 17 18  4  0
 20 27  1  0
 24 27  4  0
 26 28  4  0
M  END
$$$$

 Created by Python create_sdf_string function

 29 33  0  0  0  0  0  0  0  0999 V2000
    8.8270   -7.0288   18.4251 C   0  0  0  0  0  0  0  0  0  0  0  0
    9.1576   -4.6236   15.8860 O   0  0  0  0  0  0  0  0  0  0  0  0
    9.1509   -5.9108   17.7177 C   0  0  0  0  0  0  0  0  0  0  0  0
    3.6373   -9.5349   16.0582 N   0  0  0  0  0  0  0  0  0  0  0  0
    9.9275   -4.8001   18.0438 N   0  0  0  0  0  0  0  0  0  0  0  0
    8.5908   -5.7425   16.4412 C   0  0  0  0  0  0  0  0  0  0  0  0
   10.5993   -4.8981   21.6068 C   0  0  0  0  0  0  0  0  0  0  0  0
   10.4258   -3.0106   23.0998 C   0  0  0  0  0  0  0  0  0  0  0  0
   10.2148   -3.4364   25.4200 C   0  0  0  0  0  0  0  0  0  0  0  0
    9.7853   -1.1840   24.4927 C   0  0  0  0  0  0  0  0  0  0  0  0
    5.0276   -8.5227   17.5352 C   0  0  0  0  0  0  0  0  0  0  0  0
    9.8187   -2.0895   25.5800 C   0  0  0  0  0  0  0  0  0  0  0  0
    5.6473   -8.7216   15.3158 C   0  0  0  0  0  0  0  0  0  0  0  0
   10.7581   -3.1233   19.4720 N   0  0  0  0  0  0  0  0  0  0  0  0
    9.9571   -4.0573   16.8866 C   0  0  0  0  0  0  0  0  0  0  0  0
    7.6213   -6.5618   16.0087 C   0  0  0  0  0  0  0  0  0  0  0  0
   10.8583   -2.6527   20.7222 C   0  0  0  0  0  0  0  0  0  0  0  0
   10.6412   -3.5089   21.7936 C   0  0  0  0  0  0  0  0  0  0  0  0
   10.4972   -3.8968   24.1589 C   0  0  0  0  0  0  0  0  0  0  0  0
    5.9260   -8.2736   16.5517 C   0  0  0  0  0  0  0  0  0  0  0  0
    3.8816   -9.1166   17.2493 C   0  0  0  0  0  0  0  0  0  0  0  0
   10.1297   -1.6575   23.2324 C   0  0  0  0  0  0  0  0  0  0  0  0
    9.4684   -1.6929   26.7263 F   0  0  0  0  0  0  0  0  0  0  0  0
    7.7963   -7.7906   17.9837 C   0  0  0  0  0  0  0  0  0  0  0  0
   10.5884   -3.0725   16.7902 O   0  0  0  0  0  0  0  0  0  0  0  0
   10.4323   -5.3494   20.3516 C   0  0  0  0  0  0  0  0  0  0  0  0
    7.1156   -7.5454   16.8218 C   0  0  0  0  0  0  0  0  0  0  0  0
   10.3885   -4.4388   19.2773 C   0  0  0  0  0  0  0  0  0  0  0  0
    4.5160   -9.3822   15.0841 C   0  0  0  0  0  0  0  0  0  0  0  0
  1  3  4  0
  1 24  4  0
  2  6  4  0
  2 15  4  0
  3  5  4  0
  3  6  4  0
  4 21  4  0
  4 29  4  0
  5 15  4  0
  5 28  1  0
  6 16  4  0
  7 18  4  0
  7 26  4  0
  8 18  1  0
  8 19  4  0
  8 22  4  0
  9 12  4  0
  9 19  4  0
 10 12  4  0
 10 22  4  0
 11 20  4  0
 11 21  4  0
 12 23  1  0
 13 20  4  0
 13 29  4  0
 14 17  4  0
 14 28  4  0
 15 25  2  0
 16 27  4  0
 17 18  4  0
 20 27  1  0
 24 27  4  0
 26 28  4  0
M  END
$$$$

 Created by Python create_sdf_string function

 29 33  0  0  0  0  0  0  0  0999 V2000
    8.8270   -7.0288   18.4251 C   0  0  0  0  0  0  0  0  0  0  0  0
    9.1576   -4.6236   15.8860 O   0  0  0  0  0  0  0  0  0  0  0  0
    9.1509   -5.9108   17.7177 C   0  0  0  0  0  0  0  0  0  0  0  0
    3.6373   -9.5349   16.0582 N   0  0  0  0  0  0  0  0  0  0  0  0
    9.9275   -4.8001   18.0438 N   0  0  0  0  0  0  0  0  0  0  0  0
    8.5908   -5.7425   16.4412 C   0  0  0  0  0  0  0  0  0  0  0  0
   10.5993   -4.8981   21.6068 C   0  0  0  0  0  0  0  0  0  0  0  0
   10.4258   -3.0106   23.0998 C   0  0  0  0  0  0  0  0  0  0  0  0
   10.2148   -3.4364   25.4200 C   0  0  0  0  0  0  0  0  0  0  0  0
    9.7853   -1.1840   24.4927 C   0  0  0  0  0  0  0  0  0  0  0  0
    5.0276   -8.5227   17.5352 C   0  0  0  0  0  0  0  0  0  0  0  0
    9.8187   -2.0895   25.5800 C   0  0  0  0  0  0  0  0  0  0  0  0
    5.6473   -8.7216   15.3158 C   0  0  0  0  0  0  0  0  0  0  0  0
   10.7581   -3.1233   19.4720 N   0  0  0  0  0  0  0  0  0  0  0  0
    9.9571   -4.0573   16.8866 C   0  0  0  0  0  0  0  0  0  0  0  0
    7.6213   -6.5618   16.0087 C   0  0  0  0  0  0  0  0  0  0  0  0
   10.8583   -2.6527   20.7222 C   0  0  0  0  0  0  0  0  0  0  0  0
   10.6412   -3.5089   21.7936 C   0  0  0  0  0  0  0  0  0  0  0  0
   10.4972   -3.8968   24.1589 C   0  0  0  0  0  0  0  0  0  0  0  0
    5.9260   -8.2736   16.5517 C   0  0  0  0  0  0  0  0  0  0  0  0
    3.8816   -9.1166   17.2493 C   0  0  0  0  0  0  0  0  0  0  0  0
   10.1297   -1.6575   23.2324 C   0  0  0  0  0  0  0  0  0  0  0  0
    9.4684   -1.6929   26.7263 F   0  0  0  0  0  0  0  0  0  0  0  0
    7.7963   -7.7906   17.9837 C   0  0  0  0  0  0  0  0  0  0  0  0
   10.5884   -3.0725   16.7902 O   0  0  0  0  0  0  0  0  0  0  0  0
   10.4323   -5.3494   20.3516 C   0  0  0  0  0  0  0  0  0  0  0  0
    7.1156   -7.5454   16.8218 C   0  0  0  0  0  0  0  0  0  0  0  0
   10.3885   -4.4388   19.2773 C   0  0  0  0  0  0  0  0  0  0  0  0
    4.5160   -9.3822   15.0841 C   0  0  0  0  0  0  0  0  0  0  0  0
  1  3  4  0
  1 24  4  0
  2  6  4  0
  2 15  4  0
  3  5  4  0
  3  6  4  0
  4 21  4  0
  4 29  4  0
  5 15  4  0
  5 28  1  0
  6 16  4  0
  7 18  4  0
  7 26  4  0
  8 18  1  0
  8 19  4  0
  8 22  4  0
  9 12  4  0
  9 19  4  0
 10 12  4  0
 10 22  4  0
 11 20  4  0
 11 21  4  0
 12 23  1  0
 13 20  4  0
 13 29  4  0
 14 17  4  0
 14 28  4  0
 15 25  2  0
 16 27  4  0
 17 18  4  0
 20 27  1  0
 24 27  4  0
 26 28  4  0
M  END
$$$$

 Created by Python create_sdf_string function

 29 33  0  0  0  0  0  0  0  0999 V2000
    8.8270   -7.0288   18.4251 C   0  0  0  0  0  0  0  0  0  0  0  0
    9.1576   -4.6236   15.8860 O   0  0  0  0  0  0  0  0  0  0  0  0
    9.1509   -5.9108   17.7177 C   0  0  0  0  0  0  0  0  0  0  0  0
    3.6373   -9.5349   16.0582 N   0  0  0  0  0  0  0  0  0  0  0  0
    9.9275   -4.8001   18.0438 N   0  0  0  0  0  0  0  0  0  0  0  0
    8.5908   -5.7425   16.4412 C   0  0  0  0  0  0  0  0  0  0  0  0
   10.5993   -4.8981   21.6068 C   0  0  0  0  0  0  0  0  0  0  0  0
   10.4258   -3.0106   23.0998 C   0  0  0  0  0  0  0  0  0  0  0  0
   10.2148   -3.4364   25.4200 C   0  0  0  0  0  0  0  0  0  0  0  0
    9.7853   -1.1840   24.4927 C   0  0  0  0  0  0  0  0  0  0  0  0
    5.0276   -8.5227   17.5352 C   0  0  0  0  0  0  0  0  0  0  0  0
    9.8187   -2.0895   25.5800 C   0  0  0  0  0  0  0  0  0  0  0  0
    5.6473   -8.7216   15.3158 C   0  0  0  0  0  0  0  0  0  0  0  0
   10.7581   -3.1233   19.4720 N   0  0  0  0  0  0  0  0  0  0  0  0
    9.9571   -4.0573   16.8866 C   0  0  0  0  0  0  0  0  0  0  0  0
    7.6213   -6.5618   16.0087 C   0  0  0  0  0  0  0  0  0  0  0  0
   10.8583   -2.6527   20.7222 C   0  0  0  0  0  0  0  0  0  0  0  0
   10.6412   -3.5089   21.7936 C   0  0  0  0  0  0  0  0  0  0  0  0
   10.4972   -3.8968   24.1589 C   0  0  0  0  0  0  0  0  0  0  0  0
    5.9260   -8.2736   16.5517 C   0  0  0  0  0  0  0  0  0  0  0  0
    3.8816   -9.1166   17.2493 C   0  0  0  0  0  0  0  0  0  0  0  0
   10.1297   -1.6575   23.2324 C   0  0  0  0  0  0  0  0  0  0  0  0
    9.4684   -1.6929   26.7263 F   0  0  0  0  0  0  0  0  0  0  0  0
    7.7963   -7.7906   17.9837 C   0  0  0  0  0  0  0  0  0  0  0  0
   10.5884   -3.0725   16.7902 O   0  0  0  0  0  0  0  0  0  0  0  0
   10.4323   -5.3494   20.3516 C   0  0  0  0  0  0  0  0  0  0  0  0
    7.1156   -7.5454   16.8218 C   0  0  0  0  0  0  0  0  0  0  0  0
   10.3885   -4.4388   19.2773 C   0  0  0  0  0  0  0  0  0  0  0  0
    4.5160   -9.3822   15.0841 C   0  0  0  0  0  0  0  0  0  0  0  0
  1  3  4  0
  1 24  4  0
  2  6  4  0
  2 15  4  0
  3  5  4  0
  3  6  4  0
  4 21  4  0
  4 29  4  0
  5 15  4  0
  5 28  1  0
  6 16  4  0
  7 18  4  0
  7 26  4  0
  8 18  1  0
  8 19  4  0
  8 22  4  0
  9 12  4  0
  9 19  4  0
 10 12  4  0
 10 22  4  0
 11 20  4  0
 11 21  4  0
 12 23  1  0
 13 20  4  0
 13 29  4  0
 14 17  4  0
 14 28  4  0
 15 25  2  0
 16 27  4  0
 17 18  4  0
 20 27  1  0
 24 27  4  0
 26 28  4  0
M  END
$$$$

 Created by Python create_sdf_string function

 29 33  0  0  0  0  0  0  0  0999 V2000
    8.8270   -7.0288   18.4251 C   0  0  0  0  0  0  0  0  0  0  0  0
    9.1576   -4.6236   15.8860 O   0  0  0  0  0  0  0  0  0  0  0  0
    9.1509   -5.9108   17.7177 C   0  0  0  0  0  0  0  0  0  0  0  0
    3.6373   -9.5349   16.0582 N   0  0  0  0  0  0  0  0  0  0  0  0
    9.9275   -4.8001   18.0438 N   0  0  0  0  0  0  0  0  0  0  0  0
    8.5908   -5.7425   16.4412 C   0  0  0  0  0  0  0  0  0  0  0  0
   10.5993   -4.8981   21.6068 C   0  0  0  0  0  0  0  0  0  0  0  0
   10.4258   -3.0106   23.0998 C   0  0  0  0  0  0  0  0  0  0  0  0
   10.2148   -3.4364   25.4200 C   0  0  0  0  0  0  0  0  0  0  0  0
    9.7853   -1.1840   24.4927 C   0  0  0  0  0  0  0  0  0  0  0  0
    5.0276   -8.5227   17.5352 C   0  0  0  0  0  0  0  0  0  0  0  0
    9.8187   -2.0895   25.5800 C   0  0  0  0  0  0  0  0  0  0  0  0
    5.6473   -8.7216   15.3158 C   0  0  0  0  0  0  0  0  0  0  0  0
   10.7581   -3.1233   19.4720 N   0  0  0  0  0  0  0  0  0  0  0  0
    9.9571   -4.0573   16.8866 C   0  0  0  0  0  0  0  0  0  0  0  0
    7.6213   -6.5618   16.0087 C   0  0  0  0  0  0  0  0  0  0  0  0
   10.8583   -2.6527   20.7222 C   0  0  0  0  0  0  0  0  0  0  0  0
   10.6412   -3.5089   21.7936 C   0  0  0  0  0  0  0  0  0  0  0  0
   10.4972   -3.8968   24.1589 C   0  0  0  0  0  0  0  0  0  0  0  0
    5.9260   -8.2736   16.5517 C   0  0  0  0  0  0  0  0  0  0  0  0
    3.8816   -9.1166   17.2493 C   0  0  0  0  0  0  0  0  0  0  0  0
   10.1297   -1.6575   23.2324 C   0  0  0  0  0  0  0  0  0  0  0  0
    9.4684   -1.6929   26.7263 F   0  0  0  0  0  0  0  0  0  0  0  0
    7.7963   -7.7906   17.9837 C   0  0  0  0  0  0  0  0  0  0  0  0
   10.5884   -3.0725   16.7902 O   0  0  0  0  0  0  0  0  0  0  0  0
   10.4323   -5.3494   20.3516 C   0  0  0  0  0  0  0  0  0  0  0  0
    7.1156   -7.5454   16.8218 C   0  0  0  0  0  0  0  0  0  0  0  0
   10.3885   -4.4388   19.2773 C   0  0  0  0  0  0  0  0  0  0  0  0
    4.5160   -9.3822   15.0841 C   0  0  0  0  0  0  0  0  0  0  0  0
  1  3  4  0
  1 24  4  0
  2  6  4  0
  2 15  4  0
  3  5  4  0
  3  6  4  0
  4 21  4  0
  4 29  4  0
  5 15  4  0
  5 28  1  0
  6 16  4  0
  7 18  4  0
  7 26  4  0
  8 18  1  0
  8 19  4  0
  8 22  4  0
  9 12  4  0
  9 19  4  0
 10 12  4  0
 10 22  4  0
 11 20  4  0
 11 21  4  0
 12 23  1  0
 13 20  4  0
 13 29  4  0
 14 17  4  0
 14 28  4  0
 15 25  2  0
 16 27  4  0
 17 18  4  0
 20 27  1  0
 24 27  4  0
 26 28  4  0
M  END
$$$$

 Created by Python create_sdf_string function

 29 33  0  0  0  0  0  0  0  0999 V2000
    8.8270   -7.0288   18.4251 C   0  0  0  0  0  0  0  0  0  0  0  0
    9.1576   -4.6236   15.8860 O   0  0  0  0  0  0  0  0  0  0  0  0
    9.1509   -5.9108   17.7177 C   0  0  0  0  0  0  0  0  0  0  0  0
    3.6373   -9.5349   16.0582 N   0  0  0  0  0  0  0  0  0  0  0  0
    9.9275   -4.8001   18.0438 N   0  0  0  0  0  0  0  0  0  0  0  0
    8.5908   -5.7425   16.4412 C   0  0  0  0  0  0  0  0  0  0  0  0
   10.5993   -4.8981   21.6068 C   0  0  0  0  0  0  0  0  0  0  0  0
   10.4258   -3.0106   23.0998 C   0  0  0  0  0  0  0  0  0  0  0  0
   10.2148   -3.4364   25.4200 C   0  0  0  0  0  0  0  0  0  0  0  0
    9.7853   -1.1840   24.4927 C   0  0  0  0  0  0  0  0  0  0  0  0
    5.0276   -8.5227   17.5352 C   0  0  0  0  0  0  0  0  0  0  0  0
    9.8187   -2.0895   25.5800 C   0  0  0  0  0  0  0  0  0  0  0  0
    5.6473   -8.7216   15.3158 C   0  0  0  0  0  0  0  0  0  0  0  0
   10.7581   -3.1233   19.4720 N   0  0  0  0  0  0  0  0  0  0  0  0
    9.9571   -4.0573   16.8866 C   0  0  0  0  0  0  0  0  0  0  0  0
    7.6213   -6.5618   16.0087 C   0  0  0  0  0  0  0  0  0  0  0  0
   10.8583   -2.6527   20.7222 C   0  0  0  0  0  0  0  0  0  0  0  0
   10.6412   -3.5089   21.7936 C   0  0  0  0  0  0  0  0  0  0  0  0
   10.4972   -3.8968   24.1589 C   0  0  0  0  0  0  0  0  0  0  0  0
    5.9260   -8.2736   16.5517 C   0  0  0  0  0  0  0  0  0  0  0  0
    3.8816   -9.1166   17.2493 C   0  0  0  0  0  0  0  0  0  0  0  0
   10.1297   -1.6575   23.2324 C   0  0  0  0  0  0  0  0  0  0  0  0
    9.4684   -1.6929   26.7263 F   0  0  0  0  0  0  0  0  0  0  0  0
    7.7963   -7.7906   17.9837 C   0  0  0  0  0  0  0  0  0  0  0  0
   10.5884   -3.0725   16.7902 O   0  0  0  0  0  0  0  0  0  0  0  0
   10.4323   -5.3494   20.3516 C   0  0  0  0  0  0  0  0  0  0  0  0
    7.1156   -7.5454   16.8218 C   0  0  0  0  0  0  0  0  0  0  0  0
   10.3885   -4.4388   19.2773 C   0  0  0  0  0  0  0  0  0  0  0  0
    4.5160   -9.3822   15.0841 C   0  0  0  0  0  0  0  0  0  0  0  0
  1  3  4  0
  1 24  4  0
  2  6  4  0
  2 15  4  0
  3  5  4  0
  3  6  4  0
  4 21  4  0
  4 29  4  0
  5 15  4  0
  5 28  1  0
  6 16  4  0
  7 18  4  0
  7 26  4  0
  8 18  1  0
  8 19  4  0
  8 22  4  0
  9 12  4  0
  9 19  4  0
 10 12  4  0
 10 22  4  0
 11 20  4  0
 11 21  4  0
 12 23  1  0
 13 20  4  0
 13 29  4  0
 14 17  4  0
 14 28  4  0
 15 25  2  0
 16 27  4  0
 17 18  4  0
 20 27  1  0
 24 27  4  0
 26 28  4  0
M  END
$$$$

 Created by Python create_sdf_string function

 29 33  0  0  0  0  0  0  0  0999 V2000
    8.8270   -7.0288   18.4251 C   0  0  0  0  0  0  0  0  0  0  0  0
    9.1576   -4.6236   15.8860 O   0  0  0  0  0  0  0  0  0  0  0  0
    9.1509   -5.9108   17.7177 C   0  0  0  0  0  0  0  0  0  0  0  0
    3.6373   -9.5349   16.0582 N   0  0  0  0  0  0  0  0  0  0  0  0
    9.9275   -4.8001   18.0438 N   0  0  0  0  0  0  0  0  0  0  0  0
    8.5908   -5.7425   16.4412 C   0  0  0  0  0  0  0  0  0  0  0  0
   10.5993   -4.8981   21.6068 C   0  0  0  0  0  0  0  0  0  0  0  0
   10.4258   -3.0106   23.0998 C   0  0  0  0  0  0  0  0  0  0  0  0
   10.2148   -3.4364   25.4200 C   0  0  0  0  0  0  0  0  0  0  0  0
    9.7853   -1.1840   24.4927 C   0  0  0  0  0  0  0  0  0  0  0  0
    5.0276   -8.5227   17.5352 C   0  0  0  0  0  0  0  0  0  0  0  0
    9.8187   -2.0895   25.5800 C   0  0  0  0  0  0  0  0  0  0  0  0
    5.6473   -8.7216   15.3158 C   0  0  0  0  0  0  0  0  0  0  0  0
   10.7581   -3.1233   19.4720 N   0  0  0  0  0  0  0  0  0  0  0  0
    9.9571   -4.0573   16.8866 C   0  0  0  0  0  0  0  0  0  0  0  0
    7.6213   -6.5618   16.0087 C   0  0  0  0  0  0  0  0  0  0  0  0
   10.8583   -2.6527   20.7222 C   0  0  0  0  0  0  0  0  0  0  0  0
   10.6412   -3.5089   21.7936 C   0  0  0  0  0  0  0  0  0  0  0  0
   10.4972   -3.8968   24.1589 C   0  0  0  0  0  0  0  0  0  0  0  0
    5.9260   -8.2736   16.5517 C   0  0  0  0  0  0  0  0  0  0  0  0
    3.8816   -9.1166   17.2493 C   0  0  0  0  0  0  0  0  0  0  0  0
   10.1297   -1.6575   23.2324 C   0  0  0  0  0  0  0  0  0  0  0  0
    9.4684   -1.6929   26.7263 F   0  0  0  0  0  0  0  0  0  0  0  0
    7.7963   -7.7906   17.9837 C   0  0  0  0  0  0  0  0  0  0  0  0
   10.5884   -3.0725   16.7902 O   0  0  0  0  0  0  0  0  0  0  0  0
   10.4323   -5.3494   20.3516 C   0  0  0  0  0  0  0  0  0  0  0  0
    7.1156   -7.5454   16.8218 C   0  0  0  0  0  0  0  0  0  0  0  0
   10.3885   -4.4388   19.2773 C   0  0  0  0  0  0  0  0  0  0  0  0
    4.5160   -9.3822   15.0841 C   0  0  0  0  0  0  0  0  0  0  0  0
  1  3  4  0
  1 24  4  0
  2  6  4  0
  2 15  4  0
  3  5  4  0
  3  6  4  0
  4 21  4  0
  4 29  4  0
  5 15  4  0
  5 28  1  0
  6 16  4  0
  7 18  4  0
  7 26  4  0
  8 18  1  0
  8 19  4  0
  8 22  4  0
  9 12  4  0
  9 19  4  0
 10 12  4  0
 10 22  4  0
 11 20  4  0
 11 21  4  0
 12 23  1  0
 13 20  4  0
 13 29  4  0
 14 17  4  0
 14 28  4  0
 15 25  2  0
 16 27  4  0
 17 18  4  0
 20 27  1  0
 24 27  4  0
 26 28  4  0
M  END
$$$$

 Created by Python create_sdf_string function

 29 33  0  0  0  0  0  0  0  0999 V2000
    8.8270   -7.0288   18.4251 C   0  0  0  0  0  0  0  0  0  0  0  0
    9.1576   -4.6236   15.8860 O   0  0  0  0  0  0  0  0  0  0  0  0
    9.1509   -5.9108   17.7177 C   0  0  0  0  0  0  0  0  0  0  0  0
    3.6373   -9.5349   16.0582 N   0  0  0  0  0  0  0  0  0  0  0  0
    9.9275   -4.8001   18.0438 N   0  0  0  0  0  0  0  0  0  0  0  0
    8.5908   -5.7425   16.4412 C   0  0  0  0  0  0  0  0  0  0  0  0
   10.5993   -4.8981   21.6068 C   0  0  0  0  0  0  0  0  0  0  0  0
   10.4258   -3.0106   23.0998 C   0  0  0  0  0  0  0  0  0  0  0  0
   10.2148   -3.4364   25.4200 C   0  0  0  0  0  0  0  0  0  0  0  0
    9.7853   -1.1840   24.4927 C   0  0  0  0  0  0  0  0  0  0  0  0
    5.0276   -8.5227   17.5352 C   0  0  0  0  0  0  0  0  0  0  0  0
    9.8187   -2.0895   25.5800 C   0  0  0  0  0  0  0  0  0  0  0  0
    5.6473   -8.7216   15.3158 C   0  0  0  0  0  0  0  0  0  0  0  0
   10.7581   -3.1233   19.4720 N   0  0  0  0  0  0  0  0  0  0  0  0
    9.9571   -4.0573   16.8866 C   0  0  0  0  0  0  0  0  0  0  0  0
    7.6213   -6.5618   16.0087 C   0  0  0  0  0  0  0  0  0  0  0  0
   10.8583   -2.6527   20.7222 C   0  0  0  0  0  0  0  0  0  0  0  0
   10.6412   -3.5089   21.7936 C   0  0  0  0  0  0  0  0  0  0  0  0
   10.4972   -3.8968   24.1589 C   0  0  0  0  0  0  0  0  0  0  0  0
    5.9260   -8.2736   16.5517 C   0  0  0  0  0  0  0  0  0  0  0  0
    3.8816   -9.1166   17.2493 C   0  0  0  0  0  0  0  0  0  0  0  0
   10.1297   -1.6575   23.2324 C   0  0  0  0  0  0  0  0  0  0  0  0
    9.4684   -1.6929   26.7263 F   0  0  0  0  0  0  0  0  0  0  0  0
    7.7963   -7.7906   17.9837 C   0  0  0  0  0  0  0  0  0  0  0  0
   10.5884   -3.0725   16.7902 O   0  0  0  0  0  0  0  0  0  0  0  0
   10.4323   -5.3494   20.3516 C   0  0  0  0  0  0  0  0  0  0  0  0
    7.1156   -7.5454   16.8218 C   0  0  0  0  0  0  0  0  0  0  0  0
   10.3885   -4.4388   19.2773 C   0  0  0  0  0  0  0  0  0  0  0  0
    4.5160   -9.3822   15.0841 C   0  0  0  0  0  0  0  0  0  0  0  0
  1  3  4  0
  1 24  4  0
  2  6  4  0
  2 15  4  0
  3  5  4  0
  3  6  4  0
  4 21  4  0
  4 29  4  0
  5 15  4  0
  5 28  1  0
  6 16  4  0
  7 18  4  0
  7 26  4  0
  8 18  1  0
  8 19  4  0
  8 22  4  0
  9 12  4  0
  9 19  4  0
 10 12  4  0
 10 22  4  0
 11 20  4  0
 11 21  4  0
 12 23  1  0
 13 20  4  0
 13 29  4  0
 14 17  4  0
 14 28  4  0
 15 25  2  0
 16 27  4  0
 17 18  4  0
 20 27  1  0
 24 27  4  0
 26 28  4  0
M  END
$$$$

 Created by Python create_sdf_string function

 29 33  0  0  0  0  0  0  0  0999 V2000
    8.8270   -7.0288   18.4251 C   0  0  0  0  0  0  0  0  0  0  0  0
    9.1576   -4.6236   15.8860 O   0  0  0  0  0  0  0  0  0  0  0  0
    9.1509   -5.9108   17.7177 C   0  0  0  0  0  0  0  0  0  0  0  0
    3.6373   -9.5349   16.0582 N   0  0  0  0  0  0  0  0  0  0  0  0
    9.9275   -4.8001   18.0438 N   0  0  0  0  0  0  0  0  0  0  0  0
    8.5908   -5.7425   16.4412 C   0  0  0  0  0  0  0  0  0  0  0  0
   10.5993   -4.8981   21.6068 C   0  0  0  0  0  0  0  0  0  0  0  0
   10.4258   -3.0106   23.0998 C   0  0  0  0  0  0  0  0  0  0  0  0
   10.2148   -3.4364   25.4200 C   0  0  0  0  0  0  0  0  0  0  0  0
    9.7853   -1.1840   24.4927 C   0  0  0  0  0  0  0  0  0  0  0  0
    5.0276   -8.5227   17.5352 C   0  0  0  0  0  0  0  0  0  0  0  0
    9.8187   -2.0895   25.5800 C   0  0  0  0  0  0  0  0  0  0  0  0
    5.6473   -8.7216   15.3158 C   0  0  0  0  0  0  0  0  0  0  0  0
   10.7581   -3.1233   19.4720 N   0  0  0  0  0  0  0  0  0  0  0  0
    9.9571   -4.0573   16.8866 C   0  0  0  0  0  0  0  0  0  0  0  0
    7.6213   -6.5618   16.0087 C   0  0  0  0  0  0  0  0  0  0  0  0
   10.8583   -2.6527   20.7222 C   0  0  0  0  0  0  0  0  0  0  0  0
   10.6412   -3.5089   21.7936 C   0  0  0  0  0  0  0  0  0  0  0  0
   10.4972   -3.8968   24.1589 C   0  0  0  0  0  0  0  0  0  0  0  0
    5.9260   -8.2736   16.5517 C   0  0  0  0  0  0  0  0  0  0  0  0
    3.8816   -9.1166   17.2493 C   0  0  0  0  0  0  0  0  0  0  0  0
   10.1297   -1.6575   23.2324 C   0  0  0  0  0  0  0  0  0  0  0  0
    9.4684   -1.6929   26.7263 F   0  0  0  0  0  0  0  0  0  0  0  0
    7.7963   -7.7906   17.9837 C   0  0  0  0  0  0  0  0  0  0  0  0
   10.5884   -3.0725   16.7902 O   0  0  0  0  0  0  0  0  0  0  0  0
   10.4323   -5.3494   20.3516 C   0  0  0  0  0  0  0  0  0  0  0  0
    7.1156   -7.5454   16.8218 C   0  0  0  0  0  0  0  0  0  0  0  0
   10.3885   -4.4388   19.2773 C   0  0  0  0  0  0  0  0  0  0  0  0
    4.5160   -9.3822   15.0841 C   0  0  0  0  0  0  0  0  0  0  0  0
  1  3  4  0
  1 24  4  0
  2  6  4  0
  2 15  4  0
  3  5  4  0
  3  6  4  0
  4 21  4  0
  4 29  4  0
  5 15  4  0
  5 28  1  0
  6 16  4  0
  7 18  4  0
  7 26  4  0
  8 18  1  0
  8 19  4  0
  8 22  4  0
  9 12  4  0
  9 19  4  0
 10 12  4  0
 10 22  4  0
 11 20  4  0
 11 21  4  0
 12 23  1  0
 13 20  4  0
 13 29  4  0
 14 17  4  0
 14 28  4  0
 15 25  2  0
 16 27  4  0
 17 18  4  0
 20 27  1  0
 24 27  4  0
 26 28  4  0
M  END
$$$$

 Created by Python create_sdf_string function

 29 33  0  0  0  0  0  0  0  0999 V2000
    8.8270   -7.0288   18.4251 C   0  0  0  0  0  0  0  0  0  0  0  0
    9.1576   -4.6236   15.8860 O   0  0  0  0  0  0  0  0  0  0  0  0
    9.1509   -5.9108   17.7177 C   0  0  0  0  0  0  0  0  0  0  0  0
    3.6373   -9.5349   16.0582 N   0  0  0  0  0  0  0  0  0  0  0  0
    9.9275   -4.8001   18.0438 N   0  0  0  0  0  0  0  0  0  0  0  0
    8.5908   -5.7425   16.4412 C   0  0  0  0  0  0  0  0  0  0  0  0
   10.5993   -4.8981   21.6068 C   0  0  0  0  0  0  0  0  0  0  0  0
   10.4258   -3.0106   23.0998 C   0  0  0  0  0  0  0  0  0  0  0  0
   10.2148   -3.4364   25.4200 C   0  0  0  0  0  0  0  0  0  0  0  0
    9.7853   -1.1840   24.4927 C   0  0  0  0  0  0  0  0  0  0  0  0
    5.0276   -8.5227   17.5352 C   0  0  0  0  0  0  0  0  0  0  0  0
    9.8187   -2.0895   25.5800 C   0  0  0  0  0  0  0  0  0  0  0  0
    5.6473   -8.7216   15.3158 C   0  0  0  0  0  0  0  0  0  0  0  0
   10.7581   -3.1233   19.4720 N   0  0  0  0  0  0  0  0  0  0  0  0
    9.9571   -4.0573   16.8866 C   0  0  0  0  0  0  0  0  0  0  0  0
    7.6213   -6.5618   16.0087 C   0  0  0  0  0  0  0  0  0  0  0  0
   10.8583   -2.6527   20.7222 C   0  0  0  0  0  0  0  0  0  0  0  0
   10.6412   -3.5089   21.7936 C   0  0  0  0  0  0  0  0  0  0  0  0
   10.4972   -3.8968   24.1589 C   0  0  0  0  0  0  0  0  0  0  0  0
    5.9260   -8.2736   16.5517 C   0  0  0  0  0  0  0  0  0  0  0  0
    3.8816   -9.1166   17.2493 C   0  0  0  0  0  0  0  0  0  0  0  0
   10.1297   -1.6575   23.2324 C   0  0  0  0  0  0  0  0  0  0  0  0
    9.4684   -1.6929   26.7263 F   0  0  0  0  0  0  0  0  0  0  0  0
    7.7963   -7.7906   17.9837 C   0  0  0  0  0  0  0  0  0  0  0  0
   10.5884   -3.0725   16.7902 O   0  0  0  0  0  0  0  0  0  0  0  0
   10.4323   -5.3494   20.3516 C   0  0  0  0  0  0  0  0  0  0  0  0
    7.1156   -7.5454   16.8218 C   0  0  0  0  0  0  0  0  0  0  0  0
   10.3885   -4.4388   19.2773 C   0  0  0  0  0  0  0  0  0  0  0  0
    4.5160   -9.3822   15.0841 C   0  0  0  0  0  0  0  0  0  0  0  0
  1  3  4  0
  1 24  4  0
  2  6  4  0
  2 15  4  0
  3  5  4  0
  3  6  4  0
  4 21  4  0
  4 29  4  0
  5 15  4  0
  5 28  1  0
  6 16  4  0
  7 18  4  0
  7 26  4  0
  8 18  1  0
  8 19  4  0
  8 22  4  0
  9 12  4  0
  9 19  4  0
 10 12  4  0
 10 22  4  0
 11 20  4  0
 11 21  4  0
 12 23  1  0
 13 20  4  0
 13 29  4  0
 14 17  4  0
 14 28  4  0
 15 25  2  0
 16 27  4  0
 17 18  4  0
 20 27  1  0
 24 27  4  0
 26 28  4  0
M  END
$$$$

 Created by Python create_sdf_string function

 29 33  0  0  0  0  0  0  0  0999 V2000
    8.8270   -7.0288   18.4251 C   0  0  0  0  0  0  0  0  0  0  0  0
    9.1576   -4.6236   15.8860 O   0  0  0  0  0  0  0  0  0  0  0  0
    9.1509   -5.9108   17.7177 C   0  0  0  0  0  0  0  0  0  0  0  0
    3.6373   -9.5349   16.0582 N   0  0  0  0  0  0  0  0  0  0  0  0
    9.9275   -4.8001   18.0438 N   0  0  0  0  0  0  0  0  0  0  0  0
    8.5908   -5.7425   16.4412 C   0  0  0  0  0  0  0  0  0  0  0  0
   10.5993   -4.8981   21.6068 C   0  0  0  0  0  0  0  0  0  0  0  0
   10.4258   -3.0106   23.0998 C   0  0  0  0  0  0  0  0  0  0  0  0
   10.2148   -3.4364   25.4200 C   0  0  0  0  0  0  0  0  0  0  0  0
    9.7853   -1.1840   24.4927 C   0  0  0  0  0  0  0  0  0  0  0  0
    5.0276   -8.5227   17.5352 C   0  0  0  0  0  0  0  0  0  0  0  0
    9.8187   -2.0895   25.5800 C   0  0  0  0  0  0  0  0  0  0  0  0
    5.6473   -8.7216   15.3158 C   0  0  0  0  0  0  0  0  0  0  0  0
   10.7581   -3.1233   19.4720 N   0  0  0  0  0  0  0  0  0  0  0  0
    9.9571   -4.0573   16.8866 C   0  0  0  0  0  0  0  0  0  0  0  0
    7.6213   -6.5618   16.0087 C   0  0  0  0  0  0  0  0  0  0  0  0
   10.8583   -2.6527   20.7222 C   0  0  0  0  0  0  0  0  0  0  0  0
   10.6412   -3.5089   21.7936 C   0  0  0  0  0  0  0  0  0  0  0  0
   10.4972   -3.8968   24.1589 C   0  0  0  0  0  0  0  0  0  0  0  0
    5.9260   -8.2736   16.5517 C   0  0  0  0  0  0  0  0  0  0  0  0
    3.8816   -9.1166   17.2493 C   0  0  0  0  0  0  0  0  0  0  0  0
   10.1297   -1.6575   23.2324 C   0  0  0  0  0  0  0  0  0  0  0  0
    9.4684   -1.6929   26.7263 F   0  0  0  0  0  0  0  0  0  0  0  0
    7.7963   -7.7906   17.9837 C   0  0  0  0  0  0  0  0  0  0  0  0
   10.5884   -3.0725   16.7902 O   0  0  0  0  0  0  0  0  0  0  0  0
   10.4323   -5.3494   20.3516 C   0  0  0  0  0  0  0  0  0  0  0  0
    7.1156   -7.5454   16.8218 C   0  0  0  0  0  0  0  0  0  0  0  0
   10.3885   -4.4388   19.2773 C   0  0  0  0  0  0  0  0  0  0  0  0
    4.5160   -9.3822   15.0841 C   0  0  0  0  0  0  0  0  0  0  0  0
  1  3  4  0
  1 24  4  0
  2  6  4  0
  2 15  4  0
  3  5  4  0
  3  6  4  0
  4 21  4  0
  4 29  4  0
  5 15  4  0
  5 28  1  0
  6 16  4  0
  7 18  4  0
  7 26  4  0
  8 18  1  0
  8 19  4  0
  8 22  4  0
  9 12  4  0
  9 19  4  0
 10 12  4  0
 10 22  4  0
 11 20  4  0
 11 21  4  0
 12 23  1  0
 13 20  4  0
 13 29  4  0
 14 17  4  0
 14 28  4  0
 15 25  2  0
 16 27  4  0
 17 18  4  0
 20 27  1  0
 24 27  4  0
 26 28  4  0
M  END
$$$$

 Created by Python create_sdf_string function

 29 33  0  0  0  0  0  0  0  0999 V2000
    8.8270   -7.0288   18.4251 C   0  0  0  0  0  0  0  0  0  0  0  0
    9.1576   -4.6236   15.8860 O   0  0  0  0  0  0  0  0  0  0  0  0
    9.1509   -5.9108   17.7177 C   0  0  0  0  0  0  0  0  0  0  0  0
    3.6373   -9.5349   16.0582 N   0  0  0  0  0  0  0  0  0  0  0  0
    9.9275   -4.8001   18.0438 N   0  0  0  0  0  0  0  0  0  0  0  0
    8.5908   -5.7425   16.4412 C   0  0  0  0  0  0  0  0  0  0  0  0
   10.5993   -4.8981   21.6068 C   0  0  0  0  0  0  0  0  0  0  0  0
   10.4258   -3.0106   23.0998 C   0  0  0  0  0  0  0  0  0  0  0  0
   10.2148   -3.4364   25.4200 C   0  0  0  0  0  0  0  0  0  0  0  0
    9.7853   -1.1840   24.4927 C   0  0  0  0  0  0  0  0  0  0  0  0
    5.0276   -8.5227   17.5352 C   0  0  0  0  0  0  0  0  0  0  0  0
    9.8187   -2.0895   25.5800 C   0  0  0  0  0  0  0  0  0  0  0  0
    5.6473   -8.7216   15.3158 C   0  0  0  0  0  0  0  0  0  0  0  0
   10.7581   -3.1233   19.4720 N   0  0  0  0  0  0  0  0  0  0  0  0
    9.9571   -4.0573   16.8866 C   0  0  0  0  0  0  0  0  0  0  0  0
    7.6213   -6.5618   16.0087 C   0  0  0  0  0  0  0  0  0  0  0  0
   10.8583   -2.6527   20.7222 C   0  0  0  0  0  0  0  0  0  0  0  0
   10.6412   -3.5089   21.7936 C   0  0  0  0  0  0  0  0  0  0  0  0
   10.4972   -3.8968   24.1589 C   0  0  0  0  0  0  0  0  0  0  0  0
    5.9260   -8.2736   16.5517 C   0  0  0  0  0  0  0  0  0  0  0  0
    3.8816   -9.1166   17.2493 C   0  0  0  0  0  0  0  0  0  0  0  0
   10.1297   -1.6575   23.2324 C   0  0  0  0  0  0  0  0  0  0  0  0
    9.4684   -1.6929   26.7263 F   0  0  0  0  0  0  0  0  0  0  0  0
    7.7963   -7.7906   17.9837 C   0  0  0  0  0  0  0  0  0  0  0  0
   10.5884   -3.0725   16.7902 O   0  0  0  0  0  0  0  0  0  0  0  0
   10.4323   -5.3494   20.3516 C   0  0  0  0  0  0  0  0  0  0  0  0
    7.1156   -7.5454   16.8218 C   0  0  0  0  0  0  0  0  0  0  0  0
   10.3885   -4.4388   19.2773 C   0  0  0  0  0  0  0  0  0  0  0  0
    4.5160   -9.3822   15.0841 C   0  0  0  0  0  0  0  0  0  0  0  0
  1  3  4  0
  1 24  4  0
  2  6  4  0
  2 15  4  0
  3  5  4  0
  3  6  4  0
  4 21  4  0
  4 29  4  0
  5 15  4  0
  5 28  1  0
  6 16  4  0
  7 18  4  0
  7 26  4  0
  8 18  1  0
  8 19  4  0
  8 22  4  0
  9 12  4  0
  9 19  4  0
 10 12  4  0
 10 22  4  0
 11 20  4  0
 11 21  4  0
 12 23  1  0
 13 20  4  0
 13 29  4  0
 14 17  4  0
 14 28  4  0
 15 25  2  0
 16 27  4  0
 17 18  4  0
 20 27  1  0
 24 27  4  0
 26 28  4  0
M  END
$$$$

 Created by Python create_sdf_string function

 29 33  0  0  0  0  0  0  0  0999 V2000
    8.8270   -7.0288   18.4251 C   0  0  0  0  0  0  0  0  0  0  0  0
    9.1576   -4.6236   15.8860 O   0  0  0  0  0  0  0  0  0  0  0  0
    9.1509   -5.9108   17.7177 C   0  0  0  0  0  0  0  0  0  0  0  0
    3.6373   -9.5349   16.0582 N   0  0  0  0  0  0  0  0  0  0  0  0
    9.9275   -4.8001   18.0438 N   0  0  0  0  0  0  0  0  0  0  0  0
    8.5908   -5.7425   16.4412 C   0  0  0  0  0  0  0  0  0  0  0  0
   10.5993   -4.8981   21.6068 C   0  0  0  0  0  0  0  0  0  0  0  0
   10.4258   -3.0106   23.0998 C   0  0  0  0  0  0  0  0  0  0  0  0
   10.2148   -3.4364   25.4200 C   0  0  0  0  0  0  0  0  0  0  0  0
    9.7853   -1.1840   24.4927 C   0  0  0  0  0  0  0  0  0  0  0  0
    5.0276   -8.5227   17.5352 C   0  0  0  0  0  0  0  0  0  0  0  0
    9.8187   -2.0895   25.5800 C   0  0  0  0  0  0  0  0  0  0  0  0
    5.6473   -8.7216   15.3158 C   0  0  0  0  0  0  0  0  0  0  0  0
   10.7581   -3.1233   19.4720 N   0  0  0  0  0  0  0  0  0  0  0  0
    9.9571   -4.0573   16.8866 C   0  0  0  0  0  0  0  0  0  0  0  0
    7.6213   -6.5618   16.0087 C   0  0  0  0  0  0  0  0  0  0  0  0
   10.8583   -2.6527   20.7222 C   0  0  0  0  0  0  0  0  0  0  0  0
   10.6412   -3.5089   21.7936 C   0  0  0  0  0  0  0  0  0  0  0  0
   10.4972   -3.8968   24.1589 C   0  0  0  0  0  0  0  0  0  0  0  0
    5.9260   -8.2736   16.5517 C   0  0  0  0  0  0  0  0  0  0  0  0
    3.8816   -9.1166   17.2493 C   0  0  0  0  0  0  0  0  0  0  0  0
   10.1297   -1.6575   23.2324 C   0  0  0  0  0  0  0  0  0  0  0  0
    9.4684   -1.6929   26.7263 F   0  0  0  0  0  0  0  0  0  0  0  0
    7.7963   -7.7906   17.9837 C   0  0  0  0  0  0  0  0  0  0  0  0
   10.5884   -3.0725   16.7902 O   0  0  0  0  0  0  0  0  0  0  0  0
   10.4323   -5.3494   20.3516 C   0  0  0  0  0  0  0  0  0  0  0  0
    7.1156   -7.5454   16.8218 C   0  0  0  0  0  0  0  0  0  0  0  0
   10.3885   -4.4388   19.2773 C   0  0  0  0  0  0  0  0  0  0  0  0
    4.5160   -9.3822   15.0841 C   0  0  0  0  0  0  0  0  0  0  0  0
  1  3  4  0
  1 24  4  0
  2  6  4  0
  2 15  4  0
  3  5  4  0
  3  6  4  0
  4 21  4  0
  4 29  4  0
  5 15  4  0
  5 28  1  0
  6 16  4  0
  7 18  4  0
  7 26  4  0
  8 18  1  0
  8 19  4  0
  8 22  4  0
  9 12  4  0
  9 19  4  0
 10 12  4  0
 10 22  4  0
 11 20  4  0
 11 21  4  0
 12 23  1  0
 13 20  4  0
 13 29  4  0
 14 17  4  0
 14 28  4  0
 15 25  2  0
 16 27  4  0
 17 18  4  0
 20 27  1  0
 24 27  4  0
 26 28  4  0
M  END
$$$$

 Created by Python create_sdf_string function

 29 33  0  0  0  0  0  0  0  0999 V2000
    8.8270   -7.0288   18.4251 C   0  0  0  0  0  0  0  0  0  0  0  0
    9.1576   -4.6236   15.8860 O   0  0  0  0  0  0  0  0  0  0  0  0
    9.1509   -5.9108   17.7177 C   0  0  0  0  0  0  0  0  0  0  0  0
    3.6373   -9.5349   16.0582 N   0  0  0  0  0  0  0  0  0  0  0  0
    9.9275   -4.8001   18.0438 N   0  0  0  0  0  0  0  0  0  0  0  0
    8.5908   -5.7425   16.4412 C   0  0  0  0  0  0  0  0  0  0  0  0
   10.5993   -4.8981   21.6068 C   0  0  0  0  0  0  0  0  0  0  0  0
   10.4258   -3.0106   23.0998 C   0  0  0  0  0  0  0  0  0  0  0  0
   10.2148   -3.4364   25.4200 C   0  0  0  0  0  0  0  0  0  0  0  0
    9.7853   -1.1840   24.4927 C   0  0  0  0  0  0  0  0  0  0  0  0
    5.0276   -8.5227   17.5352 C   0  0  0  0  0  0  0  0  0  0  0  0
    9.8187   -2.0895   25.5800 C   0  0  0  0  0  0  0  0  0  0  0  0
    5.6473   -8.7216   15.3158 C   0  0  0  0  0  0  0  0  0  0  0  0
   10.7581   -3.1233   19.4720 N   0  0  0  0  0  0  0  0  0  0  0  0
    9.9571   -4.0573   16.8866 C   0  0  0  0  0  0  0  0  0  0  0  0
    7.6213   -6.5618   16.0087 C   0  0  0  0  0  0  0  0  0  0  0  0
   10.8583   -2.6527   20.7222 C   0  0  0  0  0  0  0  0  0  0  0  0
   10.6412   -3.5089   21.7936 C   0  0  0  0  0  0  0  0  0  0  0  0
   10.4972   -3.8968   24.1589 C   0  0  0  0  0  0  0  0  0  0  0  0
    5.9260   -8.2736   16.5517 C   0  0  0  0  0  0  0  0  0  0  0  0
    3.8816   -9.1166   17.2493 C   0  0  0  0  0  0  0  0  0  0  0  0
   10.1297   -1.6575   23.2324 C   0  0  0  0  0  0  0  0  0  0  0  0
    9.4684   -1.6929   26.7263 F   0  0  0  0  0  0  0  0  0  0  0  0
    7.7963   -7.7906   17.9837 C   0  0  0  0  0  0  0  0  0  0  0  0
   10.5884   -3.0725   16.7902 O   0  0  0  0  0  0  0  0  0  0  0  0
   10.4323   -5.3494   20.3516 C   0  0  0  0  0  0  0  0  0  0  0  0
    7.1156   -7.5454   16.8218 C   0  0  0  0  0  0  0  0  0  0  0  0
   10.3885   -4.4388   19.2773 C   0  0  0  0  0  0  0  0  0  0  0  0
    4.5160   -9.3822   15.0841 C   0  0  0  0  0  0  0  0  0  0  0  0
  1  3  4  0
  1 24  4  0
  2  6  4  0
  2 15  4  0
  3  5  4  0
  3  6  4  0
  4 21  4  0
  4 29  4  0
  5 15  4  0
  5 28  1  0
  6 16  4  0
  7 18  4  0
  7 26  4  0
  8 18  1  0
  8 19  4  0
  8 22  4  0
  9 12  4  0
  9 19  4  0
 10 12  4  0
 10 22  4  0
 11 20  4  0
 11 21  4  0
 12 23  1  0
 13 20  4  0
 13 29  4  0
 14 17  4  0
 14 28  4  0
 15 25  2  0
 16 27  4  0
 17 18  4  0
 20 27  1  0
 24 27  4  0
 26 28  4  0
M  END
$$$$

 Created by Python create_sdf_string function

 29 33  0  0  0  0  0  0  0  0999 V2000
    8.8270   -7.0288   18.4251 C   0  0  0  0  0  0  0  0  0  0  0  0
    9.1576   -4.6236   15.8860 O   0  0  0  0  0  0  0  0  0  0  0  0
    9.1509   -5.9108   17.7177 C   0  0  0  0  0  0  0  0  0  0  0  0
    3.6373   -9.5349   16.0582 N   0  0  0  0  0  0  0  0  0  0  0  0
    9.9275   -4.8001   18.0438 N   0  0  0  0  0  0  0  0  0  0  0  0
    8.5908   -5.7425   16.4412 C   0  0  0  0  0  0  0  0  0  0  0  0
   10.5993   -4.8981   21.6068 C   0  0  0  0  0  0  0  0  0  0  0  0
   10.4258   -3.0106   23.0998 C   0  0  0  0  0  0  0  0  0  0  0  0
   10.2148   -3.4364   25.4200 C   0  0  0  0  0  0  0  0  0  0  0  0
    9.7853   -1.1840   24.4927 C   0  0  0  0  0  0  0  0  0  0  0  0
    5.0276   -8.5227   17.5352 C   0  0  0  0  0  0  0  0  0  0  0  0
    9.8187   -2.0895   25.5800 C   0  0  0  0  0  0  0  0  0  0  0  0
    5.6473   -8.7216   15.3158 C   0  0  0  0  0  0  0  0  0  0  0  0
   10.7581   -3.1233   19.4720 N   0  0  0  0  0  0  0  0  0  0  0  0
    9.9571   -4.0573   16.8866 C   0  0  0  0  0  0  0  0  0  0  0  0
    7.6213   -6.5618   16.0087 C   0  0  0  0  0  0  0  0  0  0  0  0
   10.8583   -2.6527   20.7222 C   0  0  0  0  0  0  0  0  0  0  0  0
   10.6412   -3.5089   21.7936 C   0  0  0  0  0  0  0  0  0  0  0  0
   10.4972   -3.8968   24.1589 C   0  0  0  0  0  0  0  0  0  0  0  0
    5.9260   -8.2736   16.5517 C   0  0  0  0  0  0  0  0  0  0  0  0
    3.8816   -9.1166   17.2493 C   0  0  0  0  0  0  0  0  0  0  0  0
   10.1297   -1.6575   23.2324 C   0  0  0  0  0  0  0  0  0  0  0  0
    9.4684   -1.6929   26.7263 F   0  0  0  0  0  0  0  0  0  0  0  0
    7.7963   -7.7906   17.9837 C   0  0  0  0  0  0  0  0  0  0  0  0
   10.5884   -3.0725   16.7902 O   0  0  0  0  0  0  0  0  0  0  0  0
   10.4323   -5.3494   20.3516 C   0  0  0  0  0  0  0  0  0  0  0  0
    7.1156   -7.5454   16.8218 C   0  0  0  0  0  0  0  0  0  0  0  0
   10.3885   -4.4388   19.2773 C   0  0  0  0  0  0  0  0  0  0  0  0
    4.5160   -9.3822   15.0841 C   0  0  0  0  0  0  0  0  0  0  0  0
  1  3  4  0
  1 24  4  0
  2  6  4  0
  2 15  4  0
  3  5  4  0
  3  6  4  0
  4 21  4  0
  4 29  4  0
  5 15  4  0
  5 28  1  0
  6 16  4  0
  7 18  4  0
  7 26  4  0
  8 18  1  0
  8 19  4  0
  8 22  4  0
  9 12  4  0
  9 19  4  0
 10 12  4  0
 10 22  4  0
 11 20  4  0
 11 21  4  0
 12 23  1  0
 13 20  4  0
 13 29  4  0
 14 17  4  0
 14 28  4  0
 15 25  2  0
 16 27  4  0
 17 18  4  0
 20 27  1  0
 24 27  4  0
 26 28  4  0
M  END
$$$$

 Created by Python create_sdf_string function

 29 33  0  0  0  0  0  0  0  0999 V2000
    8.8270   -7.0288   18.4251 C   0  0  0  0  0  0  0  0  0  0  0  0
    9.1576   -4.6236   15.8860 O   0  0  0  0  0  0  0  0  0  0  0  0
    9.1509   -5.9108   17.7177 C   0  0  0  0  0  0  0  0  0  0  0  0
    3.6373   -9.5349   16.0582 N   0  0  0  0  0  0  0  0  0  0  0  0
    9.9275   -4.8001   18.0438 N   0  0  0  0  0  0  0  0  0  0  0  0
    8.5908   -5.7425   16.4412 C   0  0  0  0  0  0  0  0  0  0  0  0
   10.5993   -4.8981   21.6068 C   0  0  0  0  0  0  0  0  0  0  0  0
   10.4258   -3.0106   23.0998 C   0  0  0  0  0  0  0  0  0  0  0  0
   10.2148   -3.4364   25.4200 C   0  0  0  0  0  0  0  0  0  0  0  0
    9.7853   -1.1840   24.4927 C   0  0  0  0  0  0  0  0  0  0  0  0
    5.0276   -8.5227   17.5352 C   0  0  0  0  0  0  0  0  0  0  0  0
    9.8187   -2.0895   25.5800 C   0  0  0  0  0  0  0  0  0  0  0  0
    5.6473   -8.7216   15.3158 C   0  0  0  0  0  0  0  0  0  0  0  0
   10.7581   -3.1233   19.4720 N   0  0  0  0  0  0  0  0  0  0  0  0
    9.9571   -4.0573   16.8866 C   0  0  0  0  0  0  0  0  0  0  0  0
    7.6213   -6.5618   16.0087 C   0  0  0  0  0  0  0  0  0  0  0  0
   10.8583   -2.6527   20.7222 C   0  0  0  0  0  0  0  0  0  0  0  0
   10.6412   -3.5089   21.7936 C   0  0  0  0  0  0  0  0  0  0  0  0
   10.4972   -3.8968   24.1589 C   0  0  0  0  0  0  0  0  0  0  0  0
    5.9260   -8.2736   16.5517 C   0  0  0  0  0  0  0  0  0  0  0  0
    3.8816   -9.1166   17.2493 C   0  0  0  0  0  0  0  0  0  0  0  0
   10.1297   -1.6575   23.2324 C   0  0  0  0  0  0  0  0  0  0  0  0
    9.4684   -1.6929   26.7263 F   0  0  0  0  0  0  0  0  0  0  0  0
    7.7963   -7.7906   17.9837 C   0  0  0  0  0  0  0  0  0  0  0  0
   10.5884   -3.0725   16.7902 O   0  0  0  0  0  0  0  0  0  0  0  0
   10.4323   -5.3494   20.3516 C   0  0  0  0  0  0  0  0  0  0  0  0
    7.1156   -7.5454   16.8218 C   0  0  0  0  0  0  0  0  0  0  0  0
   10.3885   -4.4388   19.2773 C   0  0  0  0  0  0  0  0  0  0  0  0
    4.5160   -9.3822   15.0841 C   0  0  0  0  0  0  0  0  0  0  0  0
  1  3  4  0
  1 24  4  0
  2  6  4  0
  2 15  4  0
  3  5  4  0
  3  6  4  0
  4 21  4  0
  4 29  4  0
  5 15  4  0
  5 28  1  0
  6 16  4  0
  7 18  4  0
  7 26  4  0
  8 18  1  0
  8 19  4  0
  8 22  4  0
  9 12  4  0
  9 19  4  0
 10 12  4  0
 10 22  4  0
 11 20  4  0
 11 21  4  0
 12 23  1  0
 13 20  4  0
 13 29  4  0
 14 17  4  0
 14 28  4  0
 15 25  2  0
 16 27  4  0
 17 18  4  0
 20 27  1  0
 24 27  4  0
 26 28  4  0
M  END
$$$$

 Created by Python create_sdf_string function

 29 33  0  0  0  0  0  0  0  0999 V2000
    8.8270   -7.0288   18.4251 C   0  0  0  0  0  0  0  0  0  0  0  0
    9.1576   -4.6236   15.8860 O   0  0  0  0  0  0  0  0  0  0  0  0
    9.1509   -5.9108   17.7177 C   0  0  0  0  0  0  0  0  0  0  0  0
    3.6373   -9.5349   16.0582 N   0  0  0  0  0  0  0  0  0  0  0  0
    9.9275   -4.8001   18.0438 N   0  0  0  0  0  0  0  0  0  0  0  0
    8.5908   -5.7425   16.4412 C   0  0  0  0  0  0  0  0  0  0  0  0
   10.5993   -4.8981   21.6068 C   0  0  0  0  0  0  0  0  0  0  0  0
   10.4258   -3.0106   23.0998 C   0  0  0  0  0  0  0  0  0  0  0  0
   10.2148   -3.4364   25.4200 C   0  0  0  0  0  0  0  0  0  0  0  0
    9.7853   -1.1840   24.4927 C   0  0  0  0  0  0  0  0  0  0  0  0
    5.0276   -8.5227   17.5352 C   0  0  0  0  0  0  0  0  0  0  0  0
    9.8187   -2.0895   25.5800 C   0  0  0  0  0  0  0  0  0  0  0  0
    5.6473   -8.7216   15.3158 C   0  0  0  0  0  0  0  0  0  0  0  0
   10.7581   -3.1233   19.4720 N   0  0  0  0  0  0  0  0  0  0  0  0
    9.9571   -4.0573   16.8866 C   0  0  0  0  0  0  0  0  0  0  0  0
    7.6213   -6.5618   16.0087 C   0  0  0  0  0  0  0  0  0  0  0  0
   10.8583   -2.6527   20.7222 C   0  0  0  0  0  0  0  0  0  0  0  0
   10.6412   -3.5089   21.7936 C   0  0  0  0  0  0  0  0  0  0  0  0
   10.4972   -3.8968   24.1589 C   0  0  0  0  0  0  0  0  0  0  0  0
    5.9260   -8.2736   16.5517 C   0  0  0  0  0  0  0  0  0  0  0  0
    3.8816   -9.1166   17.2493 C   0  0  0  0  0  0  0  0  0  0  0  0
   10.1297   -1.6575   23.2324 C   0  0  0  0  0  0  0  0  0  0  0  0
    9.4684   -1.6929   26.7263 F   0  0  0  0  0  0  0  0  0  0  0  0
    7.7963   -7.7906   17.9837 C   0  0  0  0  0  0  0  0  0  0  0  0
   10.5884   -3.0725   16.7902 O   0  0  0  0  0  0  0  0  0  0  0  0
   10.4323   -5.3494   20.3516 C   0  0  0  0  0  0  0  0  0  0  0  0
    7.1156   -7.5454   16.8218 C   0  0  0  0  0  0  0  0  0  0  0  0
   10.3885   -4.4388   19.2773 C   0  0  0  0  0  0  0  0  0  0  0  0
    4.5160   -9.3822   15.0841 C   0  0  0  0  0  0  0  0  0  0  0  0
  1  3  4  0
  1 24  4  0
  2  6  4  0
  2 15  4  0
  3  5  4  0
  3  6  4  0
  4 21  4  0
  4 29  4  0
  5 15  4  0
  5 28  1  0
  6 16  4  0
  7 18  4  0
  7 26  4  0
  8 18  1  0
  8 19  4  0
  8 22  4  0
  9 12  4  0
  9 19  4  0
 10 12  4  0
 10 22  4  0
 11 20  4  0
 11 21  4  0
 12 23  1  0
 13 20  4  0
 13 29  4  0
 14 17  4  0
 14 28  4  0
 15 25  2  0
 16 27  4  0
 17 18  4  0
 20 27  1  0
 24 27  4  0
 26 28  4  0
M  END
$$$$

 Created by Python create_sdf_string function

 29 33  0  0  0  0  0  0  0  0999 V2000
    8.8270   -7.0288   18.4251 C   0  0  0  0  0  0  0  0  0  0  0  0
    9.1576   -4.6236   15.8860 O   0  0  0  0  0  0  0  0  0  0  0  0
    9.1509   -5.9108   17.7177 C   0  0  0  0  0  0  0  0  0  0  0  0
    3.6373   -9.5349   16.0582 N   0  0  0  0  0  0  0  0  0  0  0  0
    9.9275   -4.8001   18.0438 N   0  0  0  0  0  0  0  0  0  0  0  0
    8.5908   -5.7425   16.4412 C   0  0  0  0  0  0  0  0  0  0  0  0
   10.5993   -4.8981   21.6068 C   0  0  0  0  0  0  0  0  0  0  0  0
   10.4258   -3.0106   23.0998 C   0  0  0  0  0  0  0  0  0  0  0  0
   10.2148   -3.4364   25.4200 C   0  0  0  0  0  0  0  0  0  0  0  0
    9.7853   -1.1840   24.4927 C   0  0  0  0  0  0  0  0  0  0  0  0
    5.0276   -8.5227   17.5352 C   0  0  0  0  0  0  0  0  0  0  0  0
    9.8187   -2.0895   25.5800 C   0  0  0  0  0  0  0  0  0  0  0  0
    5.6473   -8.7216   15.3158 C   0  0  0  0  0  0  0  0  0  0  0  0
   10.7581   -3.1233   19.4720 N   0  0  0  0  0  0  0  0  0  0  0  0
    9.9571   -4.0573   16.8866 C   0  0  0  0  0  0  0  0  0  0  0  0
    7.6213   -6.5618   16.0087 C   0  0  0  0  0  0  0  0  0  0  0  0
   10.8583   -2.6527   20.7222 C   0  0  0  0  0  0  0  0  0  0  0  0
   10.6412   -3.5089   21.7936 C   0  0  0  0  0  0  0  0  0  0  0  0
   10.4972   -3.8968   24.1589 C   0  0  0  0  0  0  0  0  0  0  0  0
    5.9260   -8.2736   16.5517 C   0  0  0  0  0  0  0  0  0  0  0  0
    3.8816   -9.1166   17.2493 C   0  0  0  0  0  0  0  0  0  0  0  0
   10.1297   -1.6575   23.2324 C   0  0  0  0  0  0  0  0  0  0  0  0
    9.4684   -1.6929   26.7263 F   0  0  0  0  0  0  0  0  0  0  0  0
    7.7963   -7.7906   17.9837 C   0  0  0  0  0  0  0  0  0  0  0  0
   10.5884   -3.0725   16.7902 O   0  0  0  0  0  0  0  0  0  0  0  0
   10.4323   -5.3494   20.3516 C   0  0  0  0  0  0  0  0  0  0  0  0
    7.1156   -7.5454   16.8218 C   0  0  0  0  0  0  0  0  0  0  0  0
   10.3885   -4.4388   19.2773 C   0  0  0  0  0  0  0  0  0  0  0  0
    4.5160   -9.3822   15.0841 C   0  0  0  0  0  0  0  0  0  0  0  0
  1  3  4  0
  1 24  4  0
  2  6  4  0
  2 15  4  0
  3  5  4  0
  3  6  4  0
  4 21  4  0
  4 29  4  0
  5 15  4  0
  5 28  1  0
  6 16  4  0
  7 18  4  0
  7 26  4  0
  8 18  1  0
  8 19  4  0
  8 22  4  0
  9 12  4  0
  9 19  4  0
 10 12  4  0
 10 22  4  0
 11 20  4  0
 11 21  4  0
 12 23  1  0
 13 20  4  0
 13 29  4  0
 14 17  4  0
 14 28  4  0
 15 25  2  0
 16 27  4  0
 17 18  4  0
 20 27  1  0
 24 27  4  0
 26 28  4  0
M  END
$$$$

 Created by Python create_sdf_string function

 29 33  0  0  0  0  0  0  0  0999 V2000
    8.8270   -7.0288   18.4251 C   0  0  0  0  0  0  0  0  0  0  0  0
    9.1576   -4.6236   15.8860 O   0  0  0  0  0  0  0  0  0  0  0  0
    9.1509   -5.9108   17.7177 C   0  0  0  0  0  0  0  0  0  0  0  0
    3.6373   -9.5349   16.0582 N   0  0  0  0  0  0  0  0  0  0  0  0
    9.9275   -4.8001   18.0438 N   0  0  0  0  0  0  0  0  0  0  0  0
    8.5908   -5.7425   16.4412 C   0  0  0  0  0  0  0  0  0  0  0  0
   10.5993   -4.8981   21.6068 C   0  0  0  0  0  0  0  0  0  0  0  0
   10.4258   -3.0106   23.0998 C   0  0  0  0  0  0  0  0  0  0  0  0
   10.2148   -3.4364   25.4200 C   0  0  0  0  0  0  0  0  0  0  0  0
    9.7853   -1.1840   24.4927 C   0  0  0  0  0  0  0  0  0  0  0  0
    5.0276   -8.5227   17.5352 C   0  0  0  0  0  0  0  0  0  0  0  0
    9.8187   -2.0895   25.5800 C   0  0  0  0  0  0  0  0  0  0  0  0
    5.6473   -8.7216   15.3158 C   0  0  0  0  0  0  0  0  0  0  0  0
   10.7581   -3.1233   19.4720 N   0  0  0  0  0  0  0  0  0  0  0  0
    9.9571   -4.0573   16.8866 C   0  0  0  0  0  0  0  0  0  0  0  0
    7.6213   -6.5618   16.0087 C   0  0  0  0  0  0  0  0  0  0  0  0
   10.8583   -2.6527   20.7222 C   0  0  0  0  0  0  0  0  0  0  0  0
   10.6412   -3.5089   21.7936 C   0  0  0  0  0  0  0  0  0  0  0  0
   10.4972   -3.8968   24.1589 C   0  0  0  0  0  0  0  0  0  0  0  0
    5.9260   -8.2736   16.5517 C   0  0  0  0  0  0  0  0  0  0  0  0
    3.8816   -9.1166   17.2493 C   0  0  0  0  0  0  0  0  0  0  0  0
   10.1297   -1.6575   23.2324 C   0  0  0  0  0  0  0  0  0  0  0  0
    9.4684   -1.6929   26.7263 F   0  0  0  0  0  0  0  0  0  0  0  0
    7.7963   -7.7906   17.9837 C   0  0  0  0  0  0  0  0  0  0  0  0
   10.5884   -3.0725   16.7902 O   0  0  0  0  0  0  0  0  0  0  0  0
   10.4323   -5.3494   20.3516 C   0  0  0  0  0  0  0  0  0  0  0  0
    7.1156   -7.5454   16.8218 C   0  0  0  0  0  0  0  0  0  0  0  0
   10.3885   -4.4388   19.2773 C   0  0  0  0  0  0  0  0  0  0  0  0
    4.5160   -9.3822   15.0841 C   0  0  0  0  0  0  0  0  0  0  0  0
  1  3  4  0
  1 24  4  0
  2  6  4  0
  2 15  4  0
  3  5  4  0
  3  6  4  0
  4 21  4  0
  4 29  4  0
  5 15  4  0
  5 28  1  0
  6 16  4  0
  7 18  4  0
  7 26  4  0
  8 18  1  0
  8 19  4  0
  8 22  4  0
  9 12  4  0
  9 19  4  0
 10 12  4  0
 10 22  4  0
 11 20  4  0
 11 21  4  0
 12 23  1  0
 13 20  4  0
 13 29  4  0
 14 17  4  0
 14 28  4  0
 15 25  2  0
 16 27  4  0
 17 18  4  0
 20 27  1  0
 24 27  4  0
 26 28  4  0
M  END
$$$$

 Created by Python create_sdf_string function

 29 33  0  0  0  0  0  0  0  0999 V2000
    8.8270   -7.0288   18.4251 C   0  0  0  0  0  0  0  0  0  0  0  0
    9.1576   -4.6236   15.8860 O   0  0  0  0  0  0  0  0  0  0  0  0
    9.1509   -5.9108   17.7177 C   0  0  0  0  0  0  0  0  0  0  0  0
    3.6373   -9.5349   16.0582 N   0  0  0  0  0  0  0  0  0  0  0  0
    9.9275   -4.8001   18.0438 N   0  0  0  0  0  0  0  0  0  0  0  0
    8.5908   -5.7425   16.4412 C   0  0  0  0  0  0  0  0  0  0  0  0
   10.5993   -4.8981   21.6068 C   0  0  0  0  0  0  0  0  0  0  0  0
   10.4258   -3.0106   23.0998 C   0  0  0  0  0  0  0  0  0  0  0  0
   10.2148   -3.4364   25.4200 C   0  0  0  0  0  0  0  0  0  0  0  0
    9.7853   -1.1840   24.4927 C   0  0  0  0  0  0  0  0  0  0  0  0
    5.0276   -8.5227   17.5352 C   0  0  0  0  0  0  0  0  0  0  0  0
    9.8187   -2.0895   25.5800 C   0  0  0  0  0  0  0  0  0  0  0  0
    5.6473   -8.7216   15.3158 C   0  0  0  0  0  0  0  0  0  0  0  0
   10.7581   -3.1233   19.4720 N   0  0  0  0  0  0  0  0  0  0  0  0
    9.9571   -4.0573   16.8866 C   0  0  0  0  0  0  0  0  0  0  0  0
    7.6213   -6.5618   16.0087 C   0  0  0  0  0  0  0  0  0  0  0  0
   10.8583   -2.6527   20.7222 C   0  0  0  0  0  0  0  0  0  0  0  0
   10.6412   -3.5089   21.7936 C   0  0  0  0  0  0  0  0  0  0  0  0
   10.4972   -3.8968   24.1589 C   0  0  0  0  0  0  0  0  0  0  0  0
    5.9260   -8.2736   16.5517 C   0  0  0  0  0  0  0  0  0  0  0  0
    3.8816   -9.1166   17.2493 C   0  0  0  0  0  0  0  0  0  0  0  0
   10.1297   -1.6575   23.2324 C   0  0  0  0  0  0  0  0  0  0  0  0
    9.4684   -1.6929   26.7263 F   0  0  0  0  0  0  0  0  0  0  0  0
    7.7963   -7.7906   17.9837 C   0  0  0  0  0  0  0  0  0  0  0  0
   10.5884   -3.0725   16.7902 O   0  0  0  0  0  0  0  0  0  0  0  0
   10.4323   -5.3494   20.3516 C   0  0  0  0  0  0  0  0  0  0  0  0
    7.1156   -7.5454   16.8218 C   0  0  0  0  0  0  0  0  0  0  0  0
   10.3885   -4.4388   19.2773 C   0  0  0  0  0  0  0  0  0  0  0  0
    4.5160   -9.3822   15.0841 C   0  0  0  0  0  0  0  0  0  0  0  0
  1  3  4  0
  1 24  4  0
  2  6  4  0
  2 15  4  0
  3  5  4  0
  3  6  4  0
  4 21  4  0
  4 29  4  0
  5 15  4  0
  5 28  1  0
  6 16  4  0
  7 18  4  0
  7 26  4  0
  8 18  1  0
  8 19  4  0
  8 22  4  0
  9 12  4  0
  9 19  4  0
 10 12  4  0
 10 22  4  0
 11 20  4  0
 11 21  4  0
 12 23  1  0
 13 20  4  0
 13 29  4  0
 14 17  4  0
 14 28  4  0
 15 25  2  0
 16 27  4  0
 17 18  4  0
 20 27  1  0
 24 27  4  0
 26 28  4  0
M  END
$$$$

 Created by Python create_sdf_string function

 29 33  0  0  0  0  0  0  0  0999 V2000
    8.8270   -7.0288   18.4251 C   0  0  0  0  0  0  0  0  0  0  0  0
    9.1576   -4.6236   15.8860 O   0  0  0  0  0  0  0  0  0  0  0  0
    9.1509   -5.9108   17.7177 C   0  0  0  0  0  0  0  0  0  0  0  0
    3.6373   -9.5349   16.0582 N   0  0  0  0  0  0  0  0  0  0  0  0
    9.9275   -4.8001   18.0438 N   0  0  0  0  0  0  0  0  0  0  0  0
    8.5908   -5.7425   16.4412 C   0  0  0  0  0  0  0  0  0  0  0  0
   10.5993   -4.8981   21.6068 C   0  0  0  0  0  0  0  0  0  0  0  0
   10.4258   -3.0106   23.0998 C   0  0  0  0  0  0  0  0  0  0  0  0
   10.2148   -3.4364   25.4200 C   0  0  0  0  0  0  0  0  0  0  0  0
    9.7853   -1.1840   24.4927 C   0  0  0  0  0  0  0  0  0  0  0  0
    5.0276   -8.5227   17.5352 C   0  0  0  0  0  0  0  0  0  0  0  0
    9.8187   -2.0895   25.5800 C   0  0  0  0  0  0  0  0  0  0  0  0
    5.6473   -8.7216   15.3158 C   0  0  0  0  0  0  0  0  0  0  0  0
   10.7581   -3.1233   19.4720 N   0  0  0  0  0  0  0  0  0  0  0  0
    9.9571   -4.0573   16.8866 C   0  0  0  0  0  0  0  0  0  0  0  0
    7.6213   -6.5618   16.0087 C   0  0  0  0  0  0  0  0  0  0  0  0
   10.8583   -2.6527   20.7222 C   0  0  0  0  0  0  0  0  0  0  0  0
   10.6412   -3.5089   21.7936 C   0  0  0  0  0  0  0  0  0  0  0  0
   10.4972   -3.8968   24.1589 C   0  0  0  0  0  0  0  0  0  0  0  0
    5.9260   -8.2736   16.5517 C   0  0  0  0  0  0  0  0  0  0  0  0
    3.8816   -9.1166   17.2493 C   0  0  0  0  0  0  0  0  0  0  0  0
   10.1297   -1.6575   23.2324 C   0  0  0  0  0  0  0  0  0  0  0  0
    9.4684   -1.6929   26.7263 F   0  0  0  0  0  0  0  0  0  0  0  0
    7.7963   -7.7906   17.9837 C   0  0  0  0  0  0  0  0  0  0  0  0
   10.5884   -3.0725   16.7902 O   0  0  0  0  0  0  0  0  0  0  0  0
   10.4323   -5.3494   20.3516 C   0  0  0  0  0  0  0  0  0  0  0  0
    7.1156   -7.5454   16.8218 C   0  0  0  0  0  0  0  0  0  0  0  0
   10.3885   -4.4388   19.2773 C   0  0  0  0  0  0  0  0  0  0  0  0
    4.5160   -9.3822   15.0841 C   0  0  0  0  0  0  0  0  0  0  0  0
  1  3  4  0
  1 24  4  0
  2  6  4  0
  2 15  4  0
  3  5  4  0
  3  6  4  0
  4 21  4  0
  4 29  4  0
  5 15  4  0
  5 28  1  0
  6 16  4  0
  7 18  4  0
  7 26  4  0
  8 18  1  0
  8 19  4  0
  8 22  4  0
  9 12  4  0
  9 19  4  0
 10 12  4  0
 10 22  4  0
 11 20  4  0
 11 21  4  0
 12 23  1  0
 13 20  4  0
 13 29  4  0
 14 17  4  0
 14 28  4  0
 15 25  2  0
 16 27  4  0
 17 18  4  0
 20 27  1  0
 24 27  4  0
 26 28  4  0
M  END
$$$$

 Created by Python create_sdf_string function

 29 33  0  0  0  0  0  0  0  0999 V2000
    8.8270   -7.0288   18.4251 C   0  0  0  0  0  0  0  0  0  0  0  0
    9.1576   -4.6236   15.8860 O   0  0  0  0  0  0  0  0  0  0  0  0
    9.1509   -5.9108   17.7177 C   0  0  0  0  0  0  0  0  0  0  0  0
    3.6373   -9.5349   16.0582 N   0  0  0  0  0  0  0  0  0  0  0  0
    9.9275   -4.8001   18.0438 N   0  0  0  0  0  0  0  0  0  0  0  0
    8.5908   -5.7425   16.4412 C   0  0  0  0  0  0  0  0  0  0  0  0
   10.5993   -4.8981   21.6068 C   0  0  0  0  0  0  0  0  0  0  0  0
   10.4258   -3.0106   23.0998 C   0  0  0  0  0  0  0  0  0  0  0  0
   10.2148   -3.4364   25.4200 C   0  0  0  0  0  0  0  0  0  0  0  0
    9.7853   -1.1840   24.4927 C   0  0  0  0  0  0  0  0  0  0  0  0
    5.0276   -8.5227   17.5352 C   0  0  0  0  0  0  0  0  0  0  0  0
    9.8187   -2.0895   25.5800 C   0  0  0  0  0  0  0  0  0  0  0  0
    5.6473   -8.7216   15.3158 C   0  0  0  0  0  0  0  0  0  0  0  0
   10.7581   -3.1233   19.4720 N   0  0  0  0  0  0  0  0  0  0  0  0
    9.9571   -4.0573   16.8866 C   0  0  0  0  0  0  0  0  0  0  0  0
    7.6213   -6.5618   16.0087 C   0  0  0  0  0  0  0  0  0  0  0  0
   10.8583   -2.6527   20.7222 C   0  0  0  0  0  0  0  0  0  0  0  0
   10.6412   -3.5089   21.7936 C   0  0  0  0  0  0  0  0  0  0  0  0
   10.4972   -3.8968   24.1589 C   0  0  0  0  0  0  0  0  0  0  0  0
    5.9260   -8.2736   16.5517 C   0  0  0  0  0  0  0  0  0  0  0  0
    3.8816   -9.1166   17.2493 C   0  0  0  0  0  0  0  0  0  0  0  0
   10.1297   -1.6575   23.2324 C   0  0  0  0  0  0  0  0  0  0  0  0
    9.4684   -1.6929   26.7263 F   0  0  0  0  0  0  0  0  0  0  0  0
    7.7963   -7.7906   17.9837 C   0  0  0  0  0  0  0  0  0  0  0  0
   10.5884   -3.0725   16.7902 O   0  0  0  0  0  0  0  0  0  0  0  0
   10.4323   -5.3494   20.3516 C   0  0  0  0  0  0  0  0  0  0  0  0
    7.1156   -7.5454   16.8218 C   0  0  0  0  0  0  0  0  0  0  0  0
   10.3885   -4.4388   19.2773 C   0  0  0  0  0  0  0  0  0  0  0  0
    4.5160   -9.3822   15.0841 C   0  0  0  0  0  0  0  0  0  0  0  0
  1  3  4  0
  1 24  4  0
  2  6  4  0
  2 15  4  0
  3  5  4  0
  3  6  4  0
  4 21  4  0
  4 29  4  0
  5 15  4  0
  5 28  1  0
  6 16  4  0
  7 18  4  0
  7 26  4  0
  8 18  1  0
  8 19  4  0
  8 22  4  0
  9 12  4  0
  9 19  4  0
 10 12  4  0
 10 22  4  0
 11 20  4  0
 11 21  4  0
 12 23  1  0
 13 20  4  0
 13 29  4  0
 14 17  4  0
 14 28  4  0
 15 25  2  0
 16 27  4  0
 17 18  4  0
 20 27  1  0
 24 27  4  0
 26 28  4  0
M  END
$$$$

 Created by Python create_sdf_string function

 29 33  0  0  0  0  0  0  0  0999 V2000
    8.8270   -7.0288   18.4251 C   0  0  0  0  0  0  0  0  0  0  0  0
    9.1576   -4.6236   15.8860 O   0  0  0  0  0  0  0  0  0  0  0  0
    9.1509   -5.9108   17.7177 C   0  0  0  0  0  0  0  0  0  0  0  0
    3.6373   -9.5349   16.0582 N   0  0  0  0  0  0  0  0  0  0  0  0
    9.9275   -4.8001   18.0438 N   0  0  0  0  0  0  0  0  0  0  0  0
    8.5908   -5.7425   16.4412 C   0  0  0  0  0  0  0  0  0  0  0  0
   10.5993   -4.8981   21.6068 C   0  0  0  0  0  0  0  0  0  0  0  0
   10.4258   -3.0106   23.0998 C   0  0  0  0  0  0  0  0  0  0  0  0
   10.2148   -3.4364   25.4200 C   0  0  0  0  0  0  0  0  0  0  0  0
    9.7853   -1.1840   24.4927 C   0  0  0  0  0  0  0  0  0  0  0  0
    5.0276   -8.5227   17.5352 C   0  0  0  0  0  0  0  0  0  0  0  0
    9.8187   -2.0895   25.5800 C   0  0  0  0  0  0  0  0  0  0  0  0
    5.6473   -8.7216   15.3158 C   0  0  0  0  0  0  0  0  0  0  0  0
   10.7581   -3.1233   19.4720 N   0  0  0  0  0  0  0  0  0  0  0  0
    9.9571   -4.0573   16.8866 C   0  0  0  0  0  0  0  0  0  0  0  0
    7.6213   -6.5618   16.0087 C   0  0  0  0  0  0  0  0  0  0  0  0
   10.8583   -2.6527   20.7222 C   0  0  0  0  0  0  0  0  0  0  0  0
   10.6412   -3.5089   21.7936 C   0  0  0  0  0  0  0  0  0  0  0  0
   10.4972   -3.8968   24.1589 C   0  0  0  0  0  0  0  0  0  0  0  0
    5.9260   -8.2736   16.5517 C   0  0  0  0  0  0  0  0  0  0  0  0
    3.8816   -9.1166   17.2493 C   0  0  0  0  0  0  0  0  0  0  0  0
   10.1297   -1.6575   23.2324 C   0  0  0  0  0  0  0  0  0  0  0  0
    9.4684   -1.6929   26.7263 F   0  0  0  0  0  0  0  0  0  0  0  0
    7.7963   -7.7906   17.9837 C   0  0  0  0  0  0  0  0  0  0  0  0
   10.5884   -3.0725   16.7902 O   0  0  0  0  0  0  0  0  0  0  0  0
   10.4323   -5.3494   20.3516 C   0  0  0  0  0  0  0  0  0  0  0  0
    7.1156   -7.5454   16.8218 C   0  0  0  0  0  0  0  0  0  0  0  0
   10.3885   -4.4388   19.2773 C   0  0  0  0  0  0  0  0  0  0  0  0
    4.5160   -9.3822   15.0841 C   0  0  0  0  0  0  0  0  0  0  0  0
  1  3  4  0
  1 24  4  0
  2  6  4  0
  2 15  4  0
  3  5  4  0
  3  6  4  0
  4 21  4  0
  4 29  4  0
  5 15  4  0
  5 28  1  0
  6 16  4  0
  7 18  4  0
  7 26  4  0
  8 18  1  0
  8 19  4  0
  8 22  4  0
  9 12  4  0
  9 19  4  0
 10 12  4  0
 10 22  4  0
 11 20  4  0
 11 21  4  0
 12 23  1  0
 13 20  4  0
 13 29  4  0
 14 17  4  0
 14 28  4  0
 15 25  2  0
 16 27  4  0
 17 18  4  0
 20 27  1  0
 24 27  4  0
 26 28  4  0
M  END
$$$$

 Created by Python create_sdf_string function

 29 33  0  0  0  0  0  0  0  0999 V2000
    8.8270   -7.0288   18.4251 C   0  0  0  0  0  0  0  0  0  0  0  0
    9.1576   -4.6236   15.8860 O   0  0  0  0  0  0  0  0  0  0  0  0
    9.1509   -5.9108   17.7177 C   0  0  0  0  0  0  0  0  0  0  0  0
    3.6373   -9.5349   16.0582 N   0  0  0  0  0  0  0  0  0  0  0  0
    9.9275   -4.8001   18.0438 N   0  0  0  0  0  0  0  0  0  0  0  0
    8.5908   -5.7425   16.4412 C   0  0  0  0  0  0  0  0  0  0  0  0
   10.5993   -4.8981   21.6068 C   0  0  0  0  0  0  0  0  0  0  0  0
   10.4258   -3.0106   23.0998 C   0  0  0  0  0  0  0  0  0  0  0  0
   10.2148   -3.4364   25.4200 C   0  0  0  0  0  0  0  0  0  0  0  0
    9.7853   -1.1840   24.4927 C   0  0  0  0  0  0  0  0  0  0  0  0
    5.0276   -8.5227   17.5352 C   0  0  0  0  0  0  0  0  0  0  0  0
    9.8187   -2.0895   25.5800 C   0  0  0  0  0  0  0  0  0  0  0  0
    5.6473   -8.7216   15.3158 C   0  0  0  0  0  0  0  0  0  0  0  0
   10.7581   -3.1233   19.4720 N   0  0  0  0  0  0  0  0  0  0  0  0
    9.9571   -4.0573   16.8866 C   0  0  0  0  0  0  0  0  0  0  0  0
    7.6213   -6.5618   16.0087 C   0  0  0  0  0  0  0  0  0  0  0  0
   10.8583   -2.6527   20.7222 C   0  0  0  0  0  0  0  0  0  0  0  0
   10.6412   -3.5089   21.7936 C   0  0  0  0  0  0  0  0  0  0  0  0
   10.4972   -3.8968   24.1589 C   0  0  0  0  0  0  0  0  0  0  0  0
    5.9260   -8.2736   16.5517 C   0  0  0  0  0  0  0  0  0  0  0  0
    3.8816   -9.1166   17.2493 C   0  0  0  0  0  0  0  0  0  0  0  0
   10.1297   -1.6575   23.2324 C   0  0  0  0  0  0  0  0  0  0  0  0
    9.4684   -1.6929   26.7263 F   0  0  0  0  0  0  0  0  0  0  0  0
    7.7963   -7.7906   17.9837 C   0  0  0  0  0  0  0  0  0  0  0  0
   10.5884   -3.0725   16.7902 O   0  0  0  0  0  0  0  0  0  0  0  0
   10.4323   -5.3494   20.3516 C   0  0  0  0  0  0  0  0  0  0  0  0
    7.1156   -7.5454   16.8218 C   0  0  0  0  0  0  0  0  0  0  0  0
   10.3885   -4.4388   19.2773 C   0  0  0  0  0  0  0  0  0  0  0  0
    4.5160   -9.3822   15.0841 C   0  0  0  0  0  0  0  0  0  0  0  0
  1  3  4  0
  1 24  4  0
  2  6  4  0
  2 15  4  0
  3  5  4  0
  3  6  4  0
  4 21  4  0
  4 29  4  0
  5 15  4  0
  5 28  1  0
  6 16  4  0
  7 18  4  0
  7 26  4  0
  8 18  1  0
  8 19  4  0
  8 22  4  0
  9 12  4  0
  9 19  4  0
 10 12  4  0
 10 22  4  0
 11 20  4  0
 11 21  4  0
 12 23  1  0
 13 20  4  0
 13 29  4  0
 14 17  4  0
 14 28  4  0
 15 25  2  0
 16 27  4  0
 17 18  4  0
 20 27  1  0
 24 27  4  0
 26 28  4  0
M  END
$$$$

 Created by Python create_sdf_string function

 29 33  0  0  0  0  0  0  0  0999 V2000
    8.8270   -7.0288   18.4251 C   0  0  0  0  0  0  0  0  0  0  0  0
    9.1576   -4.6236   15.8860 O   0  0  0  0  0  0  0  0  0  0  0  0
    9.1509   -5.9108   17.7177 C   0  0  0  0  0  0  0  0  0  0  0  0
    3.6373   -9.5349   16.0582 N   0  0  0  0  0  0  0  0  0  0  0  0
    9.9275   -4.8001   18.0438 N   0  0  0  0  0  0  0  0  0  0  0  0
    8.5908   -5.7425   16.4412 C   0  0  0  0  0  0  0  0  0  0  0  0
   10.5993   -4.8981   21.6068 C   0  0  0  0  0  0  0  0  0  0  0  0
   10.4258   -3.0106   23.0998 C   0  0  0  0  0  0  0  0  0  0  0  0
   10.2148   -3.4364   25.4200 C   0  0  0  0  0  0  0  0  0  0  0  0
    9.7853   -1.1840   24.4927 C   0  0  0  0  0  0  0  0  0  0  0  0
    5.0276   -8.5227   17.5352 C   0  0  0  0  0  0  0  0  0  0  0  0
    9.8187   -2.0895   25.5800 C   0  0  0  0  0  0  0  0  0  0  0  0
    5.6473   -8.7216   15.3158 C   0  0  0  0  0  0  0  0  0  0  0  0
   10.7581   -3.1233   19.4720 N   0  0  0  0  0  0  0  0  0  0  0  0
    9.9571   -4.0573   16.8866 C   0  0  0  0  0  0  0  0  0  0  0  0
    7.6213   -6.5618   16.0087 C   0  0  0  0  0  0  0  0  0  0  0  0
   10.8583   -2.6527   20.7222 C   0  0  0  0  0  0  0  0  0  0  0  0
   10.6412   -3.5089   21.7936 C   0  0  0  0  0  0  0  0  0  0  0  0
   10.4972   -3.8968   24.1589 C   0  0  0  0  0  0  0  0  0  0  0  0
    5.9260   -8.2736   16.5517 C   0  0  0  0  0  0  0  0  0  0  0  0
    3.8816   -9.1166   17.2493 C   0  0  0  0  0  0  0  0  0  0  0  0
   10.1297   -1.6575   23.2324 C   0  0  0  0  0  0  0  0  0  0  0  0
    9.4684   -1.6929   26.7263 F   0  0  0  0  0  0  0  0  0  0  0  0
    7.7963   -7.7906   17.9837 C   0  0  0  0  0  0  0  0  0  0  0  0
   10.5884   -3.0725   16.7902 O   0  0  0  0  0  0  0  0  0  0  0  0
   10.4323   -5.3494   20.3516 C   0  0  0  0  0  0  0  0  0  0  0  0
    7.1156   -7.5454   16.8218 C   0  0  0  0  0  0  0  0  0  0  0  0
   10.3885   -4.4388   19.2773 C   0  0  0  0  0  0  0  0  0  0  0  0
    4.5160   -9.3822   15.0841 C   0  0  0  0  0  0  0  0  0  0  0  0
  1  3  4  0
  1 24  4  0
  2  6  4  0
  2 15  4  0
  3  5  4  0
  3  6  4  0
  4 21  4  0
  4 29  4  0
  5 15  4  0
  5 28  1  0
  6 16  4  0
  7 18  4  0
  7 26  4  0
  8 18  1  0
  8 19  4  0
  8 22  4  0
  9 12  4  0
  9 19  4  0
 10 12  4  0
 10 22  4  0
 11 20  4  0
 11 21  4  0
 12 23  1  0
 13 20  4  0
 13 29  4  0
 14 17  4  0
 14 28  4  0
 15 25  2  0
 16 27  4  0
 17 18  4  0
 20 27  1  0
 24 27  4  0
 26 28  4  0
M  END
$$$$

 Created by Python create_sdf_string function

 29 33  0  0  0  0  0  0  0  0999 V2000
    8.8270   -7.0288   18.4251 C   0  0  0  0  0  0  0  0  0  0  0  0
    9.1576   -4.6236   15.8860 O   0  0  0  0  0  0  0  0  0  0  0  0
    9.1509   -5.9108   17.7177 C   0  0  0  0  0  0  0  0  0  0  0  0
    3.6373   -9.5349   16.0582 N   0  0  0  0  0  0  0  0  0  0  0  0
    9.9275   -4.8001   18.0438 N   0  0  0  0  0  0  0  0  0  0  0  0
    8.5908   -5.7425   16.4412 C   0  0  0  0  0  0  0  0  0  0  0  0
   10.5993   -4.8981   21.6068 C   0  0  0  0  0  0  0  0  0  0  0  0
   10.4258   -3.0106   23.0998 C   0  0  0  0  0  0  0  0  0  0  0  0
   10.2148   -3.4364   25.4200 C   0  0  0  0  0  0  0  0  0  0  0  0
    9.7853   -1.1840   24.4927 C   0  0  0  0  0  0  0  0  0  0  0  0
    5.0276   -8.5227   17.5352 C   0  0  0  0  0  0  0  0  0  0  0  0
    9.8187   -2.0895   25.5800 C   0  0  0  0  0  0  0  0  0  0  0  0
    5.6473   -8.7216   15.3158 C   0  0  0  0  0  0  0  0  0  0  0  0
   10.7581   -3.1233   19.4720 N   0  0  0  0  0  0  0  0  0  0  0  0
    9.9571   -4.0573   16.8866 C   0  0  0  0  0  0  0  0  0  0  0  0
    7.6213   -6.5618   16.0087 C   0  0  0  0  0  0  0  0  0  0  0  0
   10.8583   -2.6527   20.7222 C   0  0  0  0  0  0  0  0  0  0  0  0
   10.6412   -3.5089   21.7936 C   0  0  0  0  0  0  0  0  0  0  0  0
   10.4972   -3.8968   24.1589 C   0  0  0  0  0  0  0  0  0  0  0  0
    5.9260   -8.2736   16.5517 C   0  0  0  0  0  0  0  0  0  0  0  0
    3.8816   -9.1166   17.2493 C   0  0  0  0  0  0  0  0  0  0  0  0
   10.1297   -1.6575   23.2324 C   0  0  0  0  0  0  0  0  0  0  0  0
    9.4684   -1.6929   26.7263 F   0  0  0  0  0  0  0  0  0  0  0  0
    7.7963   -7.7906   17.9837 C   0  0  0  0  0  0  0  0  0  0  0  0
   10.5884   -3.0725   16.7902 O   0  0  0  0  0  0  0  0  0  0  0  0
   10.4323   -5.3494   20.3516 C   0  0  0  0  0  0  0  0  0  0  0  0
    7.1156   -7.5454   16.8218 C   0  0  0  0  0  0  0  0  0  0  0  0
   10.3885   -4.4388   19.2773 C   0  0  0  0  0  0  0  0  0  0  0  0
    4.5160   -9.3822   15.0841 C   0  0  0  0  0  0  0  0  0  0  0  0
  1  3  4  0
  1 24  4  0
  2  6  4  0
  2 15  4  0
  3  5  4  0
  3  6  4  0
  4 21  4  0
  4 29  4  0
  5 15  4  0
  5 28  1  0
  6 16  4  0
  7 18  4  0
  7 26  4  0
  8 18  1  0
  8 19  4  0
  8 22  4  0
  9 12  4  0
  9 19  4  0
 10 12  4  0
 10 22  4  0
 11 20  4  0
 11 21  4  0
 12 23  1  0
 13 20  4  0
 13 29  4  0
 14 17  4  0
 14 28  4  0
 15 25  2  0
 16 27  4  0
 17 18  4  0
 20 27  1  0
 24 27  4  0
 26 28  4  0
M  END
$$$$

 Created by Python create_sdf_string function

 29 33  0  0  0  0  0  0  0  0999 V2000
    8.8270   -7.0288   18.4251 C   0  0  0  0  0  0  0  0  0  0  0  0
    9.1576   -4.6236   15.8860 O   0  0  0  0  0  0  0  0  0  0  0  0
    9.1509   -5.9108   17.7177 C   0  0  0  0  0  0  0  0  0  0  0  0
    3.6373   -9.5349   16.0582 N   0  0  0  0  0  0  0  0  0  0  0  0
    9.9275   -4.8001   18.0438 N   0  0  0  0  0  0  0  0  0  0  0  0
    8.5908   -5.7425   16.4412 C   0  0  0  0  0  0  0  0  0  0  0  0
   10.5993   -4.8981   21.6068 C   0  0  0  0  0  0  0  0  0  0  0  0
   10.4258   -3.0106   23.0998 C   0  0  0  0  0  0  0  0  0  0  0  0
   10.2148   -3.4364   25.4200 C   0  0  0  0  0  0  0  0  0  0  0  0
    9.7853   -1.1840   24.4927 C   0  0  0  0  0  0  0  0  0  0  0  0
    5.0276   -8.5227   17.5352 C   0  0  0  0  0  0  0  0  0  0  0  0
    9.8187   -2.0895   25.5800 C   0  0  0  0  0  0  0  0  0  0  0  0
    5.6473   -8.7216   15.3158 C   0  0  0  0  0  0  0  0  0  0  0  0
   10.7581   -3.1233   19.4720 N   0  0  0  0  0  0  0  0  0  0  0  0
    9.9571   -4.0573   16.8866 C   0  0  0  0  0  0  0  0  0  0  0  0
    7.6213   -6.5618   16.0087 C   0  0  0  0  0  0  0  0  0  0  0  0
   10.8583   -2.6527   20.7222 C   0  0  0  0  0  0  0  0  0  0  0  0
   10.6412   -3.5089   21.7936 C   0  0  0  0  0  0  0  0  0  0  0  0
   10.4972   -3.8968   24.1589 C   0  0  0  0  0  0  0  0  0  0  0  0
    5.9260   -8.2736   16.5517 C   0  0  0  0  0  0  0  0  0  0  0  0
    3.8816   -9.1166   17.2493 C   0  0  0  0  0  0  0  0  0  0  0  0
   10.1297   -1.6575   23.2324 C   0  0  0  0  0  0  0  0  0  0  0  0
    9.4684   -1.6929   26.7263 F   0  0  0  0  0  0  0  0  0  0  0  0
    7.7963   -7.7906   17.9837 C   0  0  0  0  0  0  0  0  0  0  0  0
   10.5884   -3.0725   16.7902 O   0  0  0  0  0  0  0  0  0  0  0  0
   10.4323   -5.3494   20.3516 C   0  0  0  0  0  0  0  0  0  0  0  0
    7.1156   -7.5454   16.8218 C   0  0  0  0  0  0  0  0  0  0  0  0
   10.3885   -4.4388   19.2773 C   0  0  0  0  0  0  0  0  0  0  0  0
    4.5160   -9.3822   15.0841 C   0  0  0  0  0  0  0  0  0  0  0  0
  1  3  4  0
  1 24  4  0
  2  6  4  0
  2 15  4  0
  3  5  4  0
  3  6  4  0
  4 21  4  0
  4 29  4  0
  5 15  4  0
  5 28  1  0
  6 16  4  0
  7 18  4  0
  7 26  4  0
  8 18  1  0
  8 19  4  0
  8 22  4  0
  9 12  4  0
  9 19  4  0
 10 12  4  0
 10 22  4  0
 11 20  4  0
 11 21  4  0
 12 23  1  0
 13 20  4  0
 13 29  4  0
 14 17  4  0
 14 28  4  0
 15 25  2  0
 16 27  4  0
 17 18  4  0
 20 27  1  0
 24 27  4  0
 26 28  4  0
M  END
$$$$

 Created by Python create_sdf_string function

 29 33  0  0  0  0  0  0  0  0999 V2000
    8.8270   -7.0288   18.4251 C   0  0  0  0  0  0  0  0  0  0  0  0
    9.1576   -4.6236   15.8860 O   0  0  0  0  0  0  0  0  0  0  0  0
    9.1509   -5.9108   17.7177 C   0  0  0  0  0  0  0  0  0  0  0  0
    3.6373   -9.5349   16.0582 N   0  0  0  0  0  0  0  0  0  0  0  0
    9.9275   -4.8001   18.0438 N   0  0  0  0  0  0  0  0  0  0  0  0
    8.5908   -5.7425   16.4412 C   0  0  0  0  0  0  0  0  0  0  0  0
   10.5993   -4.8981   21.6068 C   0  0  0  0  0  0  0  0  0  0  0  0
   10.4258   -3.0106   23.0998 C   0  0  0  0  0  0  0  0  0  0  0  0
   10.2148   -3.4364   25.4200 C   0  0  0  0  0  0  0  0  0  0  0  0
    9.7853   -1.1840   24.4927 C   0  0  0  0  0  0  0  0  0  0  0  0
    5.0276   -8.5227   17.5352 C   0  0  0  0  0  0  0  0  0  0  0  0
    9.8187   -2.0895   25.5800 C   0  0  0  0  0  0  0  0  0  0  0  0
    5.6473   -8.7216   15.3158 C   0  0  0  0  0  0  0  0  0  0  0  0
   10.7581   -3.1233   19.4720 N   0  0  0  0  0  0  0  0  0  0  0  0
    9.9571   -4.0573   16.8866 C   0  0  0  0  0  0  0  0  0  0  0  0
    7.6213   -6.5618   16.0087 C   0  0  0  0  0  0  0  0  0  0  0  0
   10.8583   -2.6527   20.7222 C   0  0  0  0  0  0  0  0  0  0  0  0
   10.6412   -3.5089   21.7936 C   0  0  0  0  0  0  0  0  0  0  0  0
   10.4972   -3.8968   24.1589 C   0  0  0  0  0  0  0  0  0  0  0  0
    5.9260   -8.2736   16.5517 C   0  0  0  0  0  0  0  0  0  0  0  0
    3.8816   -9.1166   17.2493 C   0  0  0  0  0  0  0  0  0  0  0  0
   10.1297   -1.6575   23.2324 C   0  0  0  0  0  0  0  0  0  0  0  0
    9.4684   -1.6929   26.7263 F   0  0  0  0  0  0  0  0  0  0  0  0
    7.7963   -7.7906   17.9837 C   0  0  0  0  0  0  0  0  0  0  0  0
   10.5884   -3.0725   16.7902 O   0  0  0  0  0  0  0  0  0  0  0  0
   10.4323   -5.3494   20.3516 C   0  0  0  0  0  0  0  0  0  0  0  0
    7.1156   -7.5454   16.8218 C   0  0  0  0  0  0  0  0  0  0  0  0
   10.3885   -4.4388   19.2773 C   0  0  0  0  0  0  0  0  0  0  0  0
    4.5160   -9.3822   15.0841 C   0  0  0  0  0  0  0  0  0  0  0  0
  1  3  4  0
  1 24  4  0
  2  6  4  0
  2 15  4  0
  3  5  4  0
  3  6  4  0
  4 21  4  0
  4 29  4  0
  5 15  4  0
  5 28  1  0
  6 16  4  0
  7 18  4  0
  7 26  4  0
  8 18  1  0
  8 19  4  0
  8 22  4  0
  9 12  4  0
  9 19  4  0
 10 12  4  0
 10 22  4  0
 11 20  4  0
 11 21  4  0
 12 23  1  0
 13 20  4  0
 13 29  4  0
 14 17  4  0
 14 28  4  0
 15 25  2  0
 16 27  4  0
 17 18  4  0
 20 27  1  0
 24 27  4  0
 26 28  4  0
M  END
$$$$

 Created by Python create_sdf_string function

 29 33  0  0  0  0  0  0  0  0999 V2000
    8.8270   -7.0288   18.4251 C   0  0  0  0  0  0  0  0  0  0  0  0
    9.1576   -4.6236   15.8860 O   0  0  0  0  0  0  0  0  0  0  0  0
    9.1509   -5.9108   17.7177 C   0  0  0  0  0  0  0  0  0  0  0  0
    3.6373   -9.5349   16.0582 N   0  0  0  0  0  0  0  0  0  0  0  0
    9.9275   -4.8001   18.0438 N   0  0  0  0  0  0  0  0  0  0  0  0
    8.5908   -5.7425   16.4412 C   0  0  0  0  0  0  0  0  0  0  0  0
   10.5993   -4.8981   21.6068 C   0  0  0  0  0  0  0  0  0  0  0  0
   10.4258   -3.0106   23.0998 C   0  0  0  0  0  0  0  0  0  0  0  0
   10.2148   -3.4364   25.4200 C   0  0  0  0  0  0  0  0  0  0  0  0
    9.7853   -1.1840   24.4927 C   0  0  0  0  0  0  0  0  0  0  0  0
    5.0276   -8.5227   17.5352 C   0  0  0  0  0  0  0  0  0  0  0  0
    9.8187   -2.0895   25.5800 C   0  0  0  0  0  0  0  0  0  0  0  0
    5.6473   -8.7216   15.3158 C   0  0  0  0  0  0  0  0  0  0  0  0
   10.7581   -3.1233   19.4720 N   0  0  0  0  0  0  0  0  0  0  0  0
    9.9571   -4.0573   16.8866 C   0  0  0  0  0  0  0  0  0  0  0  0
    7.6213   -6.5618   16.0087 C   0  0  0  0  0  0  0  0  0  0  0  0
   10.8583   -2.6527   20.7222 C   0  0  0  0  0  0  0  0  0  0  0  0
   10.6412   -3.5089   21.7936 C   0  0  0  0  0  0  0  0  0  0  0  0
   10.4972   -3.8968   24.1589 C   0  0  0  0  0  0  0  0  0  0  0  0
    5.9260   -8.2736   16.5517 C   0  0  0  0  0  0  0  0  0  0  0  0
    3.8816   -9.1166   17.2493 C   0  0  0  0  0  0  0  0  0  0  0  0
   10.1297   -1.6575   23.2324 C   0  0  0  0  0  0  0  0  0  0  0  0
    9.4684   -1.6929   26.7263 F   0  0  0  0  0  0  0  0  0  0  0  0
    7.7963   -7.7906   17.9837 C   0  0  0  0  0  0  0  0  0  0  0  0
   10.5884   -3.0725   16.7902 O   0  0  0  0  0  0  0  0  0  0  0  0
   10.4323   -5.3494   20.3516 C   0  0  0  0  0  0  0  0  0  0  0  0
    7.1156   -7.5454   16.8218 C   0  0  0  0  0  0  0  0  0  0  0  0
   10.3885   -4.4388   19.2773 C   0  0  0  0  0  0  0  0  0  0  0  0
    4.5160   -9.3822   15.0841 C   0  0  0  0  0  0  0  0  0  0  0  0
  1  3  4  0
  1 24  4  0
  2  6  4  0
  2 15  4  0
  3  5  4  0
  3  6  4  0
  4 21  4  0
  4 29  4  0
  5 15  4  0
  5 28  1  0
  6 16  4  0
  7 18  4  0
  7 26  4  0
  8 18  1  0
  8 19  4  0
  8 22  4  0
  9 12  4  0
  9 19  4  0
 10 12  4  0
 10 22  4  0
 11 20  4  0
 11 21  4  0
 12 23  1  0
 13 20  4  0
 13 29  4  0
 14 17  4  0
 14 28  4  0
 15 25  2  0
 16 27  4  0
 17 18  4  0
 20 27  1  0
 24 27  4  0
 26 28  4  0
M  END
$$$$

 Created by Python create_sdf_string function

 29 33  0  0  0  0  0  0  0  0999 V2000
    8.8270   -7.0288   18.4251 C   0  0  0  0  0  0  0  0  0  0  0  0
    9.1576   -4.6236   15.8860 O   0  0  0  0  0  0  0  0  0  0  0  0
    9.1509   -5.9108   17.7177 C   0  0  0  0  0  0  0  0  0  0  0  0
    3.6373   -9.5349   16.0582 N   0  0  0  0  0  0  0  0  0  0  0  0
    9.9275   -4.8001   18.0438 N   0  0  0  0  0  0  0  0  0  0  0  0
    8.5908   -5.7425   16.4412 C   0  0  0  0  0  0  0  0  0  0  0  0
   10.5993   -4.8981   21.6068 C   0  0  0  0  0  0  0  0  0  0  0  0
   10.4258   -3.0106   23.0998 C   0  0  0  0  0  0  0  0  0  0  0  0
   10.2148   -3.4364   25.4200 C   0  0  0  0  0  0  0  0  0  0  0  0
    9.7853   -1.1840   24.4927 C   0  0  0  0  0  0  0  0  0  0  0  0
    5.0276   -8.5227   17.5352 C   0  0  0  0  0  0  0  0  0  0  0  0
    9.8187   -2.0895   25.5800 C   0  0  0  0  0  0  0  0  0  0  0  0
    5.6473   -8.7216   15.3158 C   0  0  0  0  0  0  0  0  0  0  0  0
   10.7581   -3.1233   19.4720 N   0  0  0  0  0  0  0  0  0  0  0  0
    9.9571   -4.0573   16.8866 C   0  0  0  0  0  0  0  0  0  0  0  0
    7.6213   -6.5618   16.0087 C   0  0  0  0  0  0  0  0  0  0  0  0
   10.8583   -2.6527   20.7222 C   0  0  0  0  0  0  0  0  0  0  0  0
   10.6412   -3.5089   21.7936 C   0  0  0  0  0  0  0  0  0  0  0  0
   10.4972   -3.8968   24.1589 C   0  0  0  0  0  0  0  0  0  0  0  0
    5.9260   -8.2736   16.5517 C   0  0  0  0  0  0  0  0  0  0  0  0
    3.8816   -9.1166   17.2493 C   0  0  0  0  0  0  0  0  0  0  0  0
   10.1297   -1.6575   23.2324 C   0  0  0  0  0  0  0  0  0  0  0  0
    9.4684   -1.6929   26.7263 F   0  0  0  0  0  0  0  0  0  0  0  0
    7.7963   -7.7906   17.9837 C   0  0  0  0  0  0  0  0  0  0  0  0
   10.5884   -3.0725   16.7902 O   0  0  0  0  0  0  0  0  0  0  0  0
   10.4323   -5.3494   20.3516 C   0  0  0  0  0  0  0  0  0  0  0  0
    7.1156   -7.5454   16.8218 C   0  0  0  0  0  0  0  0  0  0  0  0
   10.3885   -4.4388   19.2773 C   0  0  0  0  0  0  0  0  0  0  0  0
    4.5160   -9.3822   15.0841 C   0  0  0  0  0  0  0  0  0  0  0  0
  1  3  4  0
  1 24  4  0
  2  6  4  0
  2 15  4  0
  3  5  4  0
  3  6  4  0
  4 21  4  0
  4 29  4  0
  5 15  4  0
  5 28  1  0
  6 16  4  0
  7 18  4  0
  7 26  4  0
  8 18  1  0
  8 19  4  0
  8 22  4  0
  9 12  4  0
  9 19  4  0
 10 12  4  0
 10 22  4  0
 11 20  4  0
 11 21  4  0
 12 23  1  0
 13 20  4  0
 13 29  4  0
 14 17  4  0
 14 28  4  0
 15 25  2  0
 16 27  4  0
 17 18  4  0
 20 27  1  0
 24 27  4  0
 26 28  4  0
M  END
$$$$

 Created by Python create_sdf_string function

 29 33  0  0  0  0  0  0  0  0999 V2000
    8.8270   -7.0288   18.4251 C   0  0  0  0  0  0  0  0  0  0  0  0
    9.1576   -4.6236   15.8860 O   0  0  0  0  0  0  0  0  0  0  0  0
    9.1509   -5.9108   17.7177 C   0  0  0  0  0  0  0  0  0  0  0  0
    3.6373   -9.5349   16.0582 N   0  0  0  0  0  0  0  0  0  0  0  0
    9.9275   -4.8001   18.0438 N   0  0  0  0  0  0  0  0  0  0  0  0
    8.5908   -5.7425   16.4412 C   0  0  0  0  0  0  0  0  0  0  0  0
   10.5993   -4.8981   21.6068 C   0  0  0  0  0  0  0  0  0  0  0  0
   10.4258   -3.0106   23.0998 C   0  0  0  0  0  0  0  0  0  0  0  0
   10.2148   -3.4364   25.4200 C   0  0  0  0  0  0  0  0  0  0  0  0
    9.7853   -1.1840   24.4927 C   0  0  0  0  0  0  0  0  0  0  0  0
    5.0276   -8.5227   17.5352 C   0  0  0  0  0  0  0  0  0  0  0  0
    9.8187   -2.0895   25.5800 C   0  0  0  0  0  0  0  0  0  0  0  0
    5.6473   -8.7216   15.3158 C   0  0  0  0  0  0  0  0  0  0  0  0
   10.7581   -3.1233   19.4720 N   0  0  0  0  0  0  0  0  0  0  0  0
    9.9571   -4.0573   16.8866 C   0  0  0  0  0  0  0  0  0  0  0  0
    7.6213   -6.5618   16.0087 C   0  0  0  0  0  0  0  0  0  0  0  0
   10.8583   -2.6527   20.7222 C   0  0  0  0  0  0  0  0  0  0  0  0
   10.6412   -3.5089   21.7936 C   0  0  0  0  0  0  0  0  0  0  0  0
   10.4972   -3.8968   24.1589 C   0  0  0  0  0  0  0  0  0  0  0  0
    5.9260   -8.2736   16.5517 C   0  0  0  0  0  0  0  0  0  0  0  0
    3.8816   -9.1166   17.2493 C   0  0  0  0  0  0  0  0  0  0  0  0
   10.1297   -1.6575   23.2324 C   0  0  0  0  0  0  0  0  0  0  0  0
    9.4684   -1.6929   26.7263 F   0  0  0  0  0  0  0  0  0  0  0  0
    7.7963   -7.7906   17.9837 C   0  0  0  0  0  0  0  0  0  0  0  0
   10.5884   -3.0725   16.7902 O   0  0  0  0  0  0  0  0  0  0  0  0
   10.4323   -5.3494   20.3516 C   0  0  0  0  0  0  0  0  0  0  0  0
    7.1156   -7.5454   16.8218 C   0  0  0  0  0  0  0  0  0  0  0  0
   10.3885   -4.4388   19.2773 C   0  0  0  0  0  0  0  0  0  0  0  0
    4.5160   -9.3822   15.0841 C   0  0  0  0  0  0  0  0  0  0  0  0
  1  3  4  0
  1 24  4  0
  2  6  4  0
  2 15  4  0
  3  5  4  0
  3  6  4  0
  4 21  4  0
  4 29  4  0
  5 15  4  0
  5 28  1  0
  6 16  4  0
  7 18  4  0
  7 26  4  0
  8 18  1  0
  8 19  4  0
  8 22  4  0
  9 12  4  0
  9 19  4  0
 10 12  4  0
 10 22  4  0
 11 20  4  0
 11 21  4  0
 12 23  1  0
 13 20  4  0
 13 29  4  0
 14 17  4  0
 14 28  4  0
 15 25  2  0
 16 27  4  0
 17 18  4  0
 20 27  1  0
 24 27  4  0
 26 28  4  0
M  END
$$$$

 Created by Python create_sdf_string function

 29 33  0  0  0  0  0  0  0  0999 V2000
    8.8270   -7.0288   18.4251 C   0  0  0  0  0  0  0  0  0  0  0  0
    9.1576   -4.6236   15.8860 O   0  0  0  0  0  0  0  0  0  0  0  0
    9.1509   -5.9108   17.7177 C   0  0  0  0  0  0  0  0  0  0  0  0
    3.6373   -9.5349   16.0582 N   0  0  0  0  0  0  0  0  0  0  0  0
    9.9275   -4.8001   18.0438 N   0  0  0  0  0  0  0  0  0  0  0  0
    8.5908   -5.7425   16.4412 C   0  0  0  0  0  0  0  0  0  0  0  0
   10.5993   -4.8981   21.6068 C   0  0  0  0  0  0  0  0  0  0  0  0
   10.4258   -3.0106   23.0998 C   0  0  0  0  0  0  0  0  0  0  0  0
   10.2148   -3.4364   25.4200 C   0  0  0  0  0  0  0  0  0  0  0  0
    9.7853   -1.1840   24.4927 C   0  0  0  0  0  0  0  0  0  0  0  0
    5.0276   -8.5227   17.5352 C   0  0  0  0  0  0  0  0  0  0  0  0
    9.8187   -2.0895   25.5800 C   0  0  0  0  0  0  0  0  0  0  0  0
    5.6473   -8.7216   15.3158 C   0  0  0  0  0  0  0  0  0  0  0  0
   10.7581   -3.1233   19.4720 N   0  0  0  0  0  0  0  0  0  0  0  0
    9.9571   -4.0573   16.8866 C   0  0  0  0  0  0  0  0  0  0  0  0
    7.6213   -6.5618   16.0087 C   0  0  0  0  0  0  0  0  0  0  0  0
   10.8583   -2.6527   20.7222 C   0  0  0  0  0  0  0  0  0  0  0  0
   10.6412   -3.5089   21.7936 C   0  0  0  0  0  0  0  0  0  0  0  0
   10.4972   -3.8968   24.1589 C   0  0  0  0  0  0  0  0  0  0  0  0
    5.9260   -8.2736   16.5517 C   0  0  0  0  0  0  0  0  0  0  0  0
    3.8816   -9.1166   17.2493 C   0  0  0  0  0  0  0  0  0  0  0  0
   10.1297   -1.6575   23.2324 C   0  0  0  0  0  0  0  0  0  0  0  0
    9.4684   -1.6929   26.7263 F   0  0  0  0  0  0  0  0  0  0  0  0
    7.7963   -7.7906   17.9837 C   0  0  0  0  0  0  0  0  0  0  0  0
   10.5884   -3.0725   16.7902 O   0  0  0  0  0  0  0  0  0  0  0  0
   10.4323   -5.3494   20.3516 C   0  0  0  0  0  0  0  0  0  0  0  0
    7.1156   -7.5454   16.8218 C   0  0  0  0  0  0  0  0  0  0  0  0
   10.3885   -4.4388   19.2773 C   0  0  0  0  0  0  0  0  0  0  0  0
    4.5160   -9.3822   15.0841 C   0  0  0  0  0  0  0  0  0  0  0  0
  1  3  4  0
  1 24  4  0
  2  6  4  0
  2 15  4  0
  3  5  4  0
  3  6  4  0
  4 21  4  0
  4 29  4  0
  5 15  4  0
  5 28  1  0
  6 16  4  0
  7 18  4  0
  7 26  4  0
  8 18  1  0
  8 19  4  0
  8 22  4  0
  9 12  4  0
  9 19  4  0
 10 12  4  0
 10 22  4  0
 11 20  4  0
 11 21  4  0
 12 23  1  0
 13 20  4  0
 13 29  4  0
 14 17  4  0
 14 28  4  0
 15 25  2  0
 16 27  4  0
 17 18  4  0
 20 27  1  0
 24 27  4  0
 26 28  4  0
M  END
$$$$

 Created by Python create_sdf_string function

 29 33  0  0  0  0  0  0  0  0999 V2000
    8.8270   -7.0288   18.4251 C   0  0  0  0  0  0  0  0  0  0  0  0
    9.1576   -4.6236   15.8860 O   0  0  0  0  0  0  0  0  0  0  0  0
    9.1509   -5.9108   17.7177 C   0  0  0  0  0  0  0  0  0  0  0  0
    3.6373   -9.5349   16.0582 N   0  0  0  0  0  0  0  0  0  0  0  0
    9.9275   -4.8001   18.0438 N   0  0  0  0  0  0  0  0  0  0  0  0
    8.5908   -5.7425   16.4412 C   0  0  0  0  0  0  0  0  0  0  0  0
   10.5993   -4.8981   21.6068 C   0  0  0  0  0  0  0  0  0  0  0  0
   10.4258   -3.0106   23.0998 C   0  0  0  0  0  0  0  0  0  0  0  0
   10.2148   -3.4364   25.4200 C   0  0  0  0  0  0  0  0  0  0  0  0
    9.7853   -1.1840   24.4927 C   0  0  0  0  0  0  0  0  0  0  0  0
    5.0276   -8.5227   17.5352 C   0  0  0  0  0  0  0  0  0  0  0  0
    9.8187   -2.0895   25.5800 C   0  0  0  0  0  0  0  0  0  0  0  0
    5.6473   -8.7216   15.3158 C   0  0  0  0  0  0  0  0  0  0  0  0
   10.7581   -3.1233   19.4720 N   0  0  0  0  0  0  0  0  0  0  0  0
    9.9571   -4.0573   16.8866 C   0  0  0  0  0  0  0  0  0  0  0  0
    7.6213   -6.5618   16.0087 C   0  0  0  0  0  0  0  0  0  0  0  0
   10.8583   -2.6527   20.7222 C   0  0  0  0  0  0  0  0  0  0  0  0
   10.6412   -3.5089   21.7936 C   0  0  0  0  0  0  0  0  0  0  0  0
   10.4972   -3.8968   24.1589 C   0  0  0  0  0  0  0  0  0  0  0  0
    5.9260   -8.2736   16.5517 C   0  0  0  0  0  0  0  0  0  0  0  0
    3.8816   -9.1166   17.2493 C   0  0  0  0  0  0  0  0  0  0  0  0
   10.1297   -1.6575   23.2324 C   0  0  0  0  0  0  0  0  0  0  0  0
    9.4684   -1.6929   26.7263 F   0  0  0  0  0  0  0  0  0  0  0  0
    7.7963   -7.7906   17.9837 C   0  0  0  0  0  0  0  0  0  0  0  0
   10.5884   -3.0725   16.7902 O   0  0  0  0  0  0  0  0  0  0  0  0
   10.4323   -5.3494   20.3516 C   0  0  0  0  0  0  0  0  0  0  0  0
    7.1156   -7.5454   16.8218 C   0  0  0  0  0  0  0  0  0  0  0  0
   10.3885   -4.4388   19.2773 C   0  0  0  0  0  0  0  0  0  0  0  0
    4.5160   -9.3822   15.0841 C   0  0  0  0  0  0  0  0  0  0  0  0
  1  3  4  0
  1 24  4  0
  2  6  4  0
  2 15  4  0
  3  5  4  0
  3  6  4  0
  4 21  4  0
  4 29  4  0
  5 15  4  0
  5 28  1  0
  6 16  4  0
  7 18  4  0
  7 26  4  0
  8 18  1  0
  8 19  4  0
  8 22  4  0
  9 12  4  0
  9 19  4  0
 10 12  4  0
 10 22  4  0
 11 20  4  0
 11 21  4  0
 12 23  1  0
 13 20  4  0
 13 29  4  0
 14 17  4  0
 14 28  4  0
 15 25  2  0
 16 27  4  0
 17 18  4  0
 20 27  1  0
 24 27  4  0
 26 28  4  0
M  END
$$$$

 Created by Python create_sdf_string function

 29 33  0  0  0  0  0  0  0  0999 V2000
    8.8270   -7.0288   18.4251 C   0  0  0  0  0  0  0  0  0  0  0  0
    9.1576   -4.6236   15.8860 O   0  0  0  0  0  0  0  0  0  0  0  0
    9.1509   -5.9108   17.7177 C   0  0  0  0  0  0  0  0  0  0  0  0
    3.6373   -9.5349   16.0582 N   0  0  0  0  0  0  0  0  0  0  0  0
    9.9275   -4.8001   18.0438 N   0  0  0  0  0  0  0  0  0  0  0  0
    8.5908   -5.7425   16.4412 C   0  0  0  0  0  0  0  0  0  0  0  0
   10.5993   -4.8981   21.6068 C   0  0  0  0  0  0  0  0  0  0  0  0
   10.4258   -3.0106   23.0998 C   0  0  0  0  0  0  0  0  0  0  0  0
   10.2148   -3.4364   25.4200 C   0  0  0  0  0  0  0  0  0  0  0  0
    9.7853   -1.1840   24.4927 C   0  0  0  0  0  0  0  0  0  0  0  0
    5.0276   -8.5227   17.5352 C   0  0  0  0  0  0  0  0  0  0  0  0
    9.8187   -2.0895   25.5800 C   0  0  0  0  0  0  0  0  0  0  0  0
    5.6473   -8.7216   15.3158 C   0  0  0  0  0  0  0  0  0  0  0  0
   10.7581   -3.1233   19.4720 N   0  0  0  0  0  0  0  0  0  0  0  0
    9.9571   -4.0573   16.8866 C   0  0  0  0  0  0  0  0  0  0  0  0
    7.6213   -6.5618   16.0087 C   0  0  0  0  0  0  0  0  0  0  0  0
   10.8583   -2.6527   20.7222 C   0  0  0  0  0  0  0  0  0  0  0  0
   10.6412   -3.5089   21.7936 C   0  0  0  0  0  0  0  0  0  0  0  0
   10.4972   -3.8968   24.1589 C   0  0  0  0  0  0  0  0  0  0  0  0
    5.9260   -8.2736   16.5517 C   0  0  0  0  0  0  0  0  0  0  0  0
    3.8816   -9.1166   17.2493 C   0  0  0  0  0  0  0  0  0  0  0  0
   10.1297   -1.6575   23.2324 C   0  0  0  0  0  0  0  0  0  0  0  0
    9.4684   -1.6929   26.7263 F   0  0  0  0  0  0  0  0  0  0  0  0
    7.7963   -7.7906   17.9837 C   0  0  0  0  0  0  0  0  0  0  0  0
   10.5884   -3.0725   16.7902 O   0  0  0  0  0  0  0  0  0  0  0  0
   10.4323   -5.3494   20.3516 C   0  0  0  0  0  0  0  0  0  0  0  0
    7.1156   -7.5454   16.8218 C   0  0  0  0  0  0  0  0  0  0  0  0
   10.3885   -4.4388   19.2773 C   0  0  0  0  0  0  0  0  0  0  0  0
    4.5160   -9.3822   15.0841 C   0  0  0  0  0  0  0  0  0  0  0  0
  1  3  4  0
  1 24  4  0
  2  6  4  0
  2 15  4  0
  3  5  4  0
  3  6  4  0
  4 21  4  0
  4 29  4  0
  5 15  4  0
  5 28  1  0
  6 16  4  0
  7 18  4  0
  7 26  4  0
  8 18  1  0
  8 19  4  0
  8 22  4  0
  9 12  4  0
  9 19  4  0
 10 12  4  0
 10 22  4  0
 11 20  4  0
 11 21  4  0
 12 23  1  0
 13 20  4  0
 13 29  4  0
 14 17  4  0
 14 28  4  0
 15 25  2  0
 16 27  4  0
 17 18  4  0
 20 27  1  0
 24 27  4  0
 26 28  4  0
M  END
$$$$

 Created by Python create_sdf_string function

 29 33  0  0  0  0  0  0  0  0999 V2000
    8.8270   -7.0288   18.4251 C   0  0  0  0  0  0  0  0  0  0  0  0
    9.1576   -4.6236   15.8860 O   0  0  0  0  0  0  0  0  0  0  0  0
    9.1509   -5.9108   17.7177 C   0  0  0  0  0  0  0  0  0  0  0  0
    3.6373   -9.5349   16.0582 N   0  0  0  0  0  0  0  0  0  0  0  0
    9.9275   -4.8001   18.0438 N   0  0  0  0  0  0  0  0  0  0  0  0
    8.5908   -5.7425   16.4412 C   0  0  0  0  0  0  0  0  0  0  0  0
   10.5993   -4.8981   21.6068 C   0  0  0  0  0  0  0  0  0  0  0  0
   10.4258   -3.0106   23.0998 C   0  0  0  0  0  0  0  0  0  0  0  0
   10.2148   -3.4364   25.4200 C   0  0  0  0  0  0  0  0  0  0  0  0
    9.7853   -1.1840   24.4927 C   0  0  0  0  0  0  0  0  0  0  0  0
    5.0276   -8.5227   17.5352 C   0  0  0  0  0  0  0  0  0  0  0  0
    9.8187   -2.0895   25.5800 C   0  0  0  0  0  0  0  0  0  0  0  0
    5.6473   -8.7216   15.3158 C   0  0  0  0  0  0  0  0  0  0  0  0
   10.7581   -3.1233   19.4720 N   0  0  0  0  0  0  0  0  0  0  0  0
    9.9571   -4.0573   16.8866 C   0  0  0  0  0  0  0  0  0  0  0  0
    7.6213   -6.5618   16.0087 C   0  0  0  0  0  0  0  0  0  0  0  0
   10.8583   -2.6527   20.7222 C   0  0  0  0  0  0  0  0  0  0  0  0
   10.6412   -3.5089   21.7936 C   0  0  0  0  0  0  0  0  0  0  0  0
   10.4972   -3.8968   24.1589 C   0  0  0  0  0  0  0  0  0  0  0  0
    5.9260   -8.2736   16.5517 C   0  0  0  0  0  0  0  0  0  0  0  0
    3.8816   -9.1166   17.2493 C   0  0  0  0  0  0  0  0  0  0  0  0
   10.1297   -1.6575   23.2324 C   0  0  0  0  0  0  0  0  0  0  0  0
    9.4684   -1.6929   26.7263 F   0  0  0  0  0  0  0  0  0  0  0  0
    7.7963   -7.7906   17.9837 C   0  0  0  0  0  0  0  0  0  0  0  0
   10.5884   -3.0725   16.7902 O   0  0  0  0  0  0  0  0  0  0  0  0
   10.4323   -5.3494   20.3516 C   0  0  0  0  0  0  0  0  0  0  0  0
    7.1156   -7.5454   16.8218 C   0  0  0  0  0  0  0  0  0  0  0  0
   10.3885   -4.4388   19.2773 C   0  0  0  0  0  0  0  0  0  0  0  0
    4.5160   -9.3822   15.0841 C   0  0  0  0  0  0  0  0  0  0  0  0
  1  3  4  0
  1 24  4  0
  2  6  4  0
  2 15  4  0
  3  5  4  0
  3  6  4  0
  4 21  4  0
  4 29  4  0
  5 15  4  0
  5 28  1  0
  6 16  4  0
  7 18  4  0
  7 26  4  0
  8 18  1  0
  8 19  4  0
  8 22  4  0
  9 12  4  0
  9 19  4  0
 10 12  4  0
 10 22  4  0
 11 20  4  0
 11 21  4  0
 12 23  1  0
 13 20  4  0
 13 29  4  0
 14 17  4  0
 14 28  4  0
 15 25  2  0
 16 27  4  0
 17 18  4  0
 20 27  1  0
 24 27  4  0
 26 28  4  0
M  END
$$$$

 Created by Python create_sdf_string function

 29 33  0  0  0  0  0  0  0  0999 V2000
    8.8270   -7.0288   18.4251 C   0  0  0  0  0  0  0  0  0  0  0  0
    9.1576   -4.6236   15.8860 O   0  0  0  0  0  0  0  0  0  0  0  0
    9.1509   -5.9108   17.7177 C   0  0  0  0  0  0  0  0  0  0  0  0
    3.6373   -9.5349   16.0582 N   0  0  0  0  0  0  0  0  0  0  0  0
    9.9275   -4.8001   18.0438 N   0  0  0  0  0  0  0  0  0  0  0  0
    8.5908   -5.7425   16.4412 C   0  0  0  0  0  0  0  0  0  0  0  0
   10.5993   -4.8981   21.6068 C   0  0  0  0  0  0  0  0  0  0  0  0
   10.4258   -3.0106   23.0998 C   0  0  0  0  0  0  0  0  0  0  0  0
   10.2148   -3.4364   25.4200 C   0  0  0  0  0  0  0  0  0  0  0  0
    9.7853   -1.1840   24.4927 C   0  0  0  0  0  0  0  0  0  0  0  0
    5.0276   -8.5227   17.5352 C   0  0  0  0  0  0  0  0  0  0  0  0
    9.8187   -2.0895   25.5800 C   0  0  0  0  0  0  0  0  0  0  0  0
    5.6473   -8.7216   15.3158 C   0  0  0  0  0  0  0  0  0  0  0  0
   10.7581   -3.1233   19.4720 N   0  0  0  0  0  0  0  0  0  0  0  0
    9.9571   -4.0573   16.8866 C   0  0  0  0  0  0  0  0  0  0  0  0
    7.6213   -6.5618   16.0087 C   0  0  0  0  0  0  0  0  0  0  0  0
   10.8583   -2.6527   20.7222 C   0  0  0  0  0  0  0  0  0  0  0  0
   10.6412   -3.5089   21.7936 C   0  0  0  0  0  0  0  0  0  0  0  0
   10.4972   -3.8968   24.1589 C   0  0  0  0  0  0  0  0  0  0  0  0
    5.9260   -8.2736   16.5517 C   0  0  0  0  0  0  0  0  0  0  0  0
    3.8816   -9.1166   17.2493 C   0  0  0  0  0  0  0  0  0  0  0  0
   10.1297   -1.6575   23.2324 C   0  0  0  0  0  0  0  0  0  0  0  0
    9.4684   -1.6929   26.7263 F   0  0  0  0  0  0  0  0  0  0  0  0
    7.7963   -7.7906   17.9837 C   0  0  0  0  0  0  0  0  0  0  0  0
   10.5884   -3.0725   16.7902 O   0  0  0  0  0  0  0  0  0  0  0  0
   10.4323   -5.3494   20.3516 C   0  0  0  0  0  0  0  0  0  0  0  0
    7.1156   -7.5454   16.8218 C   0  0  0  0  0  0  0  0  0  0  0  0
   10.3885   -4.4388   19.2773 C   0  0  0  0  0  0  0  0  0  0  0  0
    4.5160   -9.3822   15.0841 C   0  0  0  0  0  0  0  0  0  0  0  0
  1  3  4  0
  1 24  4  0
  2  6  4  0
  2 15  4  0
  3  5  4  0
  3  6  4  0
  4 21  4  0
  4 29  4  0
  5 15  4  0
  5 28  1  0
  6 16  4  0
  7 18  4  0
  7 26  4  0
  8 18  1  0
  8 19  4  0
  8 22  4  0
  9 12  4  0
  9 19  4  0
 10 12  4  0
 10 22  4  0
 11 20  4  0
 11 21  4  0
 12 23  1  0
 13 20  4  0
 13 29  4  0
 14 17  4  0
 14 28  4  0
 15 25  2  0
 16 27  4  0
 17 18  4  0
 20 27  1  0
 24 27  4  0
 26 28  4  0
M  END
$$$$

 Created by Python create_sdf_string function

 29 33  0  0  0  0  0  0  0  0999 V2000
    8.8270   -7.0288   18.4251 C   0  0  0  0  0  0  0  0  0  0  0  0
    9.1576   -4.6236   15.8860 O   0  0  0  0  0  0  0  0  0  0  0  0
    9.1509   -5.9108   17.7177 C   0  0  0  0  0  0  0  0  0  0  0  0
    3.6373   -9.5349   16.0582 N   0  0  0  0  0  0  0  0  0  0  0  0
    9.9275   -4.8001   18.0438 N   0  0  0  0  0  0  0  0  0  0  0  0
    8.5908   -5.7425   16.4412 C   0  0  0  0  0  0  0  0  0  0  0  0
   10.5993   -4.8981   21.6068 C   0  0  0  0  0  0  0  0  0  0  0  0
   10.4258   -3.0106   23.0998 C   0  0  0  0  0  0  0  0  0  0  0  0
   10.2148   -3.4364   25.4200 C   0  0  0  0  0  0  0  0  0  0  0  0
    9.7853   -1.1840   24.4927 C   0  0  0  0  0  0  0  0  0  0  0  0
    5.0276   -8.5227   17.5352 C   0  0  0  0  0  0  0  0  0  0  0  0
    9.8187   -2.0895   25.5800 C   0  0  0  0  0  0  0  0  0  0  0  0
    5.6473   -8.7216   15.3158 C   0  0  0  0  0  0  0  0  0  0  0  0
   10.7581   -3.1233   19.4720 N   0  0  0  0  0  0  0  0  0  0  0  0
    9.9571   -4.0573   16.8866 C   0  0  0  0  0  0  0  0  0  0  0  0
    7.6213   -6.5618   16.0087 C   0  0  0  0  0  0  0  0  0  0  0  0
   10.8583   -2.6527   20.7222 C   0  0  0  0  0  0  0  0  0  0  0  0
   10.6412   -3.5089   21.7936 C   0  0  0  0  0  0  0  0  0  0  0  0
   10.4972   -3.8968   24.1589 C   0  0  0  0  0  0  0  0  0  0  0  0
    5.9260   -8.2736   16.5517 C   0  0  0  0  0  0  0  0  0  0  0  0
    3.8816   -9.1166   17.2493 C   0  0  0  0  0  0  0  0  0  0  0  0
   10.1297   -1.6575   23.2324 C   0  0  0  0  0  0  0  0  0  0  0  0
    9.4684   -1.6929   26.7263 F   0  0  0  0  0  0  0  0  0  0  0  0
    7.7963   -7.7906   17.9837 C   0  0  0  0  0  0  0  0  0  0  0  0
   10.5884   -3.0725   16.7902 O   0  0  0  0  0  0  0  0  0  0  0  0
   10.4323   -5.3494   20.3516 C   0  0  0  0  0  0  0  0  0  0  0  0
    7.1156   -7.5454   16.8218 C   0  0  0  0  0  0  0  0  0  0  0  0
   10.3885   -4.4388   19.2773 C   0  0  0  0  0  0  0  0  0  0  0  0
    4.5160   -9.3822   15.0841 C   0  0  0  0  0  0  0  0  0  0  0  0
  1  3  4  0
  1 24  4  0
  2  6  4  0
  2 15  4  0
  3  5  4  0
  3  6  4  0
  4 21  4  0
  4 29  4  0
  5 15  4  0
  5 28  1  0
  6 16  4  0
  7 18  4  0
  7 26  4  0
  8 18  1  0
  8 19  4  0
  8 22  4  0
  9 12  4  0
  9 19  4  0
 10 12  4  0
 10 22  4  0
 11 20  4  0
 11 21  4  0
 12 23  1  0
 13 20  4  0
 13 29  4  0
 14 17  4  0
 14 28  4  0
 15 25  2  0
 16 27  4  0
 17 18  4  0
 20 27  1  0
 24 27  4  0
 26 28  4  0
M  END
$$$$

 Created by Python create_sdf_string function

 29 33  0  0  0  0  0  0  0  0999 V2000
    8.8270   -7.0288   18.4251 C   0  0  0  0  0  0  0  0  0  0  0  0
    9.1576   -4.6236   15.8860 O   0  0  0  0  0  0  0  0  0  0  0  0
    9.1509   -5.9108   17.7177 C   0  0  0  0  0  0  0  0  0  0  0  0
    3.6373   -9.5349   16.0582 N   0  0  0  0  0  0  0  0  0  0  0  0
    9.9275   -4.8001   18.0438 N   0  0  0  0  0  0  0  0  0  0  0  0
    8.5908   -5.7425   16.4412 C   0  0  0  0  0  0  0  0  0  0  0  0
   10.5993   -4.8981   21.6068 C   0  0  0  0  0  0  0  0  0  0  0  0
   10.4258   -3.0106   23.0998 C   0  0  0  0  0  0  0  0  0  0  0  0
   10.2148   -3.4364   25.4200 C   0  0  0  0  0  0  0  0  0  0  0  0
    9.7853   -1.1840   24.4927 C   0  0  0  0  0  0  0  0  0  0  0  0
    5.0276   -8.5227   17.5352 C   0  0  0  0  0  0  0  0  0  0  0  0
    9.8187   -2.0895   25.5800 C   0  0  0  0  0  0  0  0  0  0  0  0
    5.6473   -8.7216   15.3158 C   0  0  0  0  0  0  0  0  0  0  0  0
   10.7581   -3.1233   19.4720 N   0  0  0  0  0  0  0  0  0  0  0  0
    9.9571   -4.0573   16.8866 C   0  0  0  0  0  0  0  0  0  0  0  0
    7.6213   -6.5618   16.0087 C   0  0  0  0  0  0  0  0  0  0  0  0
   10.8583   -2.6527   20.7222 C   0  0  0  0  0  0  0  0  0  0  0  0
   10.6412   -3.5089   21.7936 C   0  0  0  0  0  0  0  0  0  0  0  0
   10.4972   -3.8968   24.1589 C   0  0  0  0  0  0  0  0  0  0  0  0
    5.9260   -8.2736   16.5517 C   0  0  0  0  0  0  0  0  0  0  0  0
    3.8816   -9.1166   17.2493 C   0  0  0  0  0  0  0  0  0  0  0  0
   10.1297   -1.6575   23.2324 C   0  0  0  0  0  0  0  0  0  0  0  0
    9.4684   -1.6929   26.7263 F   0  0  0  0  0  0  0  0  0  0  0  0
    7.7963   -7.7906   17.9837 C   0  0  0  0  0  0  0  0  0  0  0  0
   10.5884   -3.0725   16.7902 O   0  0  0  0  0  0  0  0  0  0  0  0
   10.4323   -5.3494   20.3516 C   0  0  0  0  0  0  0  0  0  0  0  0
    7.1156   -7.5454   16.8218 C   0  0  0  0  0  0  0  0  0  0  0  0
   10.3885   -4.4388   19.2773 C   0  0  0  0  0  0  0  0  0  0  0  0
    4.5160   -9.3822   15.0841 C   0  0  0  0  0  0  0  0  0  0  0  0
  1  3  4  0
  1 24  4  0
  2  6  4  0
  2 15  4  0
  3  5  4  0
  3  6  4  0
  4 21  4  0
  4 29  4  0
  5 15  4  0
  5 28  1  0
  6 16  4  0
  7 18  4  0
  7 26  4  0
  8 18  1  0
  8 19  4  0
  8 22  4  0
  9 12  4  0
  9 19  4  0
 10 12  4  0
 10 22  4  0
 11 20  4  0
 11 21  4  0
 12 23  1  0
 13 20  4  0
 13 29  4  0
 14 17  4  0
 14 28  4  0
 15 25  2  0
 16 27  4  0
 17 18  4  0
 20 27  1  0
 24 27  4  0
 26 28  4  0
M  END
$$$$

 Created by Python create_sdf_string function

 29 33  0  0  0  0  0  0  0  0999 V2000
    8.8270   -7.0288   18.4251 C   0  0  0  0  0  0  0  0  0  0  0  0
    9.1576   -4.6236   15.8860 O   0  0  0  0  0  0  0  0  0  0  0  0
    9.1509   -5.9108   17.7177 C   0  0  0  0  0  0  0  0  0  0  0  0
    3.6373   -9.5349   16.0582 N   0  0  0  0  0  0  0  0  0  0  0  0
    9.9275   -4.8001   18.0438 N   0  0  0  0  0  0  0  0  0  0  0  0
    8.5908   -5.7425   16.4412 C   0  0  0  0  0  0  0  0  0  0  0  0
   10.5993   -4.8981   21.6068 C   0  0  0  0  0  0  0  0  0  0  0  0
   10.4258   -3.0106   23.0998 C   0  0  0  0  0  0  0  0  0  0  0  0
   10.2148   -3.4364   25.4200 C   0  0  0  0  0  0  0  0  0  0  0  0
    9.7853   -1.1840   24.4927 C   0  0  0  0  0  0  0  0  0  0  0  0
    5.0276   -8.5227   17.5352 C   0  0  0  0  0  0  0  0  0  0  0  0
    9.8187   -2.0895   25.5800 C   0  0  0  0  0  0  0  0  0  0  0  0
    5.6473   -8.7216   15.3158 C   0  0  0  0  0  0  0  0  0  0  0  0
   10.7581   -3.1233   19.4720 N   0  0  0  0  0  0  0  0  0  0  0  0
    9.9571   -4.0573   16.8866 C   0  0  0  0  0  0  0  0  0  0  0  0
    7.6213   -6.5618   16.0087 C   0  0  0  0  0  0  0  0  0  0  0  0
   10.8583   -2.6527   20.7222 C   0  0  0  0  0  0  0  0  0  0  0  0
   10.6412   -3.5089   21.7936 C   0  0  0  0  0  0  0  0  0  0  0  0
   10.4972   -3.8968   24.1589 C   0  0  0  0  0  0  0  0  0  0  0  0
    5.9260   -8.2736   16.5517 C   0  0  0  0  0  0  0  0  0  0  0  0
    3.8816   -9.1166   17.2493 C   0  0  0  0  0  0  0  0  0  0  0  0
   10.1297   -1.6575   23.2324 C   0  0  0  0  0  0  0  0  0  0  0  0
    9.4684   -1.6929   26.7263 F   0  0  0  0  0  0  0  0  0  0  0  0
    7.7963   -7.7906   17.9837 C   0  0  0  0  0  0  0  0  0  0  0  0
   10.5884   -3.0725   16.7902 O   0  0  0  0  0  0  0  0  0  0  0  0
   10.4323   -5.3494   20.3516 C   0  0  0  0  0  0  0  0  0  0  0  0
    7.1156   -7.5454   16.8218 C   0  0  0  0  0  0  0  0  0  0  0  0
   10.3885   -4.4388   19.2773 C   0  0  0  0  0  0  0  0  0  0  0  0
    4.5160   -9.3822   15.0841 C   0  0  0  0  0  0  0  0  0  0  0  0
  1  3  4  0
  1 24  4  0
  2  6  4  0
  2 15  4  0
  3  5  4  0
  3  6  4  0
  4 21  4  0
  4 29  4  0
  5 15  4  0
  5 28  1  0
  6 16  4  0
  7 18  4  0
  7 26  4  0
  8 18  1  0
  8 19  4  0
  8 22  4  0
  9 12  4  0
  9 19  4  0
 10 12  4  0
 10 22  4  0
 11 20  4  0
 11 21  4  0
 12 23  1  0
 13 20  4  0
 13 29  4  0
 14 17  4  0
 14 28  4  0
 15 25  2  0
 16 27  4  0
 17 18  4  0
 20 27  1  0
 24 27  4  0
 26 28  4  0
M  END
$$$$

 Created by Python create_sdf_string function

 29 33  0  0  0  0  0  0  0  0999 V2000
    8.8270   -7.0288   18.4251 C   0  0  0  0  0  0  0  0  0  0  0  0
    9.1576   -4.6236   15.8860 O   0  0  0  0  0  0  0  0  0  0  0  0
    9.1509   -5.9108   17.7177 C   0  0  0  0  0  0  0  0  0  0  0  0
    3.6373   -9.5349   16.0582 N   0  0  0  0  0  0  0  0  0  0  0  0
    9.9275   -4.8001   18.0438 N   0  0  0  0  0  0  0  0  0  0  0  0
    8.5908   -5.7425   16.4412 C   0  0  0  0  0  0  0  0  0  0  0  0
   10.5993   -4.8981   21.6068 C   0  0  0  0  0  0  0  0  0  0  0  0
   10.4258   -3.0106   23.0998 C   0  0  0  0  0  0  0  0  0  0  0  0
   10.2148   -3.4364   25.4200 C   0  0  0  0  0  0  0  0  0  0  0  0
    9.7853   -1.1840   24.4927 C   0  0  0  0  0  0  0  0  0  0  0  0
    5.0276   -8.5227   17.5352 C   0  0  0  0  0  0  0  0  0  0  0  0
    9.8187   -2.0895   25.5800 C   0  0  0  0  0  0  0  0  0  0  0  0
    5.6473   -8.7216   15.3158 C   0  0  0  0  0  0  0  0  0  0  0  0
   10.7581   -3.1233   19.4720 N   0  0  0  0  0  0  0  0  0  0  0  0
    9.9571   -4.0573   16.8866 C   0  0  0  0  0  0  0  0  0  0  0  0
    7.6213   -6.5618   16.0087 C   0  0  0  0  0  0  0  0  0  0  0  0
   10.8583   -2.6527   20.7222 C   0  0  0  0  0  0  0  0  0  0  0  0
   10.6412   -3.5089   21.7936 C   0  0  0  0  0  0  0  0  0  0  0  0
   10.4972   -3.8968   24.1589 C   0  0  0  0  0  0  0  0  0  0  0  0
    5.9260   -8.2736   16.5517 C   0  0  0  0  0  0  0  0  0  0  0  0
    3.8816   -9.1166   17.2493 C   0  0  0  0  0  0  0  0  0  0  0  0
   10.1297   -1.6575   23.2324 C   0  0  0  0  0  0  0  0  0  0  0  0
    9.4684   -1.6929   26.7263 F   0  0  0  0  0  0  0  0  0  0  0  0
    7.7963   -7.7906   17.9837 C   0  0  0  0  0  0  0  0  0  0  0  0
   10.5884   -3.0725   16.7902 O   0  0  0  0  0  0  0  0  0  0  0  0
   10.4323   -5.3494   20.3516 C   0  0  0  0  0  0  0  0  0  0  0  0
    7.1156   -7.5454   16.8218 C   0  0  0  0  0  0  0  0  0  0  0  0
   10.3885   -4.4388   19.2773 C   0  0  0  0  0  0  0  0  0  0  0  0
    4.5160   -9.3822   15.0841 C   0  0  0  0  0  0  0  0  0  0  0  0
  1  3  4  0
  1 24  4  0
  2  6  4  0
  2 15  4  0
  3  5  4  0
  3  6  4  0
  4 21  4  0
  4 29  4  0
  5 15  4  0
  5 28  1  0
  6 16  4  0
  7 18  4  0
  7 26  4  0
  8 18  1  0
  8 19  4  0
  8 22  4  0
  9 12  4  0
  9 19  4  0
 10 12  4  0
 10 22  4  0
 11 20  4  0
 11 21  4  0
 12 23  1  0
 13 20  4  0
 13 29  4  0
 14 17  4  0
 14 28  4  0
 15 25  2  0
 16 27  4  0
 17 18  4  0
 20 27  1  0
 24 27  4  0
 26 28  4  0
M  END
$$$$

 Created by Python create_sdf_string function

 29 33  0  0  0  0  0  0  0  0999 V2000
    8.8270   -7.0288   18.4251 C   0  0  0  0  0  0  0  0  0  0  0  0
    9.1576   -4.6236   15.8860 O   0  0  0  0  0  0  0  0  0  0  0  0
    9.1509   -5.9108   17.7177 C   0  0  0  0  0  0  0  0  0  0  0  0
    3.6373   -9.5349   16.0582 N   0  0  0  0  0  0  0  0  0  0  0  0
    9.9275   -4.8001   18.0438 N   0  0  0  0  0  0  0  0  0  0  0  0
    8.5908   -5.7425   16.4412 C   0  0  0  0  0  0  0  0  0  0  0  0
   10.5993   -4.8981   21.6068 C   0  0  0  0  0  0  0  0  0  0  0  0
   10.4258   -3.0106   23.0998 C   0  0  0  0  0  0  0  0  0  0  0  0
   10.2148   -3.4364   25.4200 C   0  0  0  0  0  0  0  0  0  0  0  0
    9.7853   -1.1840   24.4927 C   0  0  0  0  0  0  0  0  0  0  0  0
    5.0276   -8.5227   17.5352 C   0  0  0  0  0  0  0  0  0  0  0  0
    9.8187   -2.0895   25.5800 C   0  0  0  0  0  0  0  0  0  0  0  0
    5.6473   -8.7216   15.3158 C   0  0  0  0  0  0  0  0  0  0  0  0
   10.7581   -3.1233   19.4720 N   0  0  0  0  0  0  0  0  0  0  0  0
    9.9571   -4.0573   16.8866 C   0  0  0  0  0  0  0  0  0  0  0  0
    7.6213   -6.5618   16.0087 C   0  0  0  0  0  0  0  0  0  0  0  0
   10.8583   -2.6527   20.7222 C   0  0  0  0  0  0  0  0  0  0  0  0
   10.6412   -3.5089   21.7936 C   0  0  0  0  0  0  0  0  0  0  0  0
   10.4972   -3.8968   24.1589 C   0  0  0  0  0  0  0  0  0  0  0  0
    5.9260   -8.2736   16.5517 C   0  0  0  0  0  0  0  0  0  0  0  0
    3.8816   -9.1166   17.2493 C   0  0  0  0  0  0  0  0  0  0  0  0
   10.1297   -1.6575   23.2324 C   0  0  0  0  0  0  0  0  0  0  0  0
    9.4684   -1.6929   26.7263 F   0  0  0  0  0  0  0  0  0  0  0  0
    7.7963   -7.7906   17.9837 C   0  0  0  0  0  0  0  0  0  0  0  0
   10.5884   -3.0725   16.7902 O   0  0  0  0  0  0  0  0  0  0  0  0
   10.4323   -5.3494   20.3516 C   0  0  0  0  0  0  0  0  0  0  0  0
    7.1156   -7.5454   16.8218 C   0  0  0  0  0  0  0  0  0  0  0  0
   10.3885   -4.4388   19.2773 C   0  0  0  0  0  0  0  0  0  0  0  0
    4.5160   -9.3822   15.0841 C   0  0  0  0  0  0  0  0  0  0  0  0
  1  3  4  0
  1 24  4  0
  2  6  4  0
  2 15  4  0
  3  5  4  0
  3  6  4  0
  4 21  4  0
  4 29  4  0
  5 15  4  0
  5 28  1  0
  6 16  4  0
  7 18  4  0
  7 26  4  0
  8 18  1  0
  8 19  4  0
  8 22  4  0
  9 12  4  0
  9 19  4  0
 10 12  4  0
 10 22  4  0
 11 20  4  0
 11 21  4  0
 12 23  1  0
 13 20  4  0
 13 29  4  0
 14 17  4  0
 14 28  4  0
 15 25  2  0
 16 27  4  0
 17 18  4  0
 20 27  1  0
 24 27  4  0
 26 28  4  0
M  END
$$$$

 Created by Python create_sdf_string function

 29 33  0  0  0  0  0  0  0  0999 V2000
    8.8270   -7.0288   18.4251 C   0  0  0  0  0  0  0  0  0  0  0  0
    9.1576   -4.6236   15.8860 O   0  0  0  0  0  0  0  0  0  0  0  0
    9.1509   -5.9108   17.7177 C   0  0  0  0  0  0  0  0  0  0  0  0
    3.6373   -9.5349   16.0582 N   0  0  0  0  0  0  0  0  0  0  0  0
    9.9275   -4.8001   18.0438 N   0  0  0  0  0  0  0  0  0  0  0  0
    8.5908   -5.7425   16.4412 C   0  0  0  0  0  0  0  0  0  0  0  0
   10.5993   -4.8981   21.6068 C   0  0  0  0  0  0  0  0  0  0  0  0
   10.4258   -3.0106   23.0998 C   0  0  0  0  0  0  0  0  0  0  0  0
   10.2148   -3.4364   25.4200 C   0  0  0  0  0  0  0  0  0  0  0  0
    9.7853   -1.1840   24.4927 C   0  0  0  0  0  0  0  0  0  0  0  0
    5.0276   -8.5227   17.5352 C   0  0  0  0  0  0  0  0  0  0  0  0
    9.8187   -2.0895   25.5800 C   0  0  0  0  0  0  0  0  0  0  0  0
    5.6473   -8.7216   15.3158 C   0  0  0  0  0  0  0  0  0  0  0  0
   10.7581   -3.1233   19.4720 N   0  0  0  0  0  0  0  0  0  0  0  0
    9.9571   -4.0573   16.8866 C   0  0  0  0  0  0  0  0  0  0  0  0
    7.6213   -6.5618   16.0087 C   0  0  0  0  0  0  0  0  0  0  0  0
   10.8583   -2.6527   20.7222 C   0  0  0  0  0  0  0  0  0  0  0  0
   10.6412   -3.5089   21.7936 C   0  0  0  0  0  0  0  0  0  0  0  0
   10.4972   -3.8968   24.1589 C   0  0  0  0  0  0  0  0  0  0  0  0
    5.9260   -8.2736   16.5517 C   0  0  0  0  0  0  0  0  0  0  0  0
    3.8816   -9.1166   17.2493 C   0  0  0  0  0  0  0  0  0  0  0  0
   10.1297   -1.6575   23.2324 C   0  0  0  0  0  0  0  0  0  0  0  0
    9.4684   -1.6929   26.7263 F   0  0  0  0  0  0  0  0  0  0  0  0
    7.7963   -7.7906   17.9837 C   0  0  0  0  0  0  0  0  0  0  0  0
   10.5884   -3.0725   16.7902 O   0  0  0  0  0  0  0  0  0  0  0  0
   10.4323   -5.3494   20.3516 C   0  0  0  0  0  0  0  0  0  0  0  0
    7.1156   -7.5454   16.8218 C   0  0  0  0  0  0  0  0  0  0  0  0
   10.3885   -4.4388   19.2773 C   0  0  0  0  0  0  0  0  0  0  0  0
    4.5160   -9.3822   15.0841 C   0  0  0  0  0  0  0  0  0  0  0  0
  1  3  4  0
  1 24  4  0
  2  6  4  0
  2 15  4  0
  3  5  4  0
  3  6  4  0
  4 21  4  0
  4 29  4  0
  5 15  4  0
  5 28  1  0
  6 16  4  0
  7 18  4  0
  7 26  4  0
  8 18  1  0
  8 19  4  0
  8 22  4  0
  9 12  4  0
  9 19  4  0
 10 12  4  0
 10 22  4  0
 11 20  4  0
 11 21  4  0
 12 23  1  0
 13 20  4  0
 13 29  4  0
 14 17  4  0
 14 28  4  0
 15 25  2  0
 16 27  4  0
 17 18  4  0
 20 27  1  0
 24 27  4  0
 26 28  4  0
M  END
$$$$

 Created by Python create_sdf_string function

 29 33  0  0  0  0  0  0  0  0999 V2000
    8.8270   -7.0288   18.4251 C   0  0  0  0  0  0  0  0  0  0  0  0
    9.1576   -4.6236   15.8860 O   0  0  0  0  0  0  0  0  0  0  0  0
    9.1509   -5.9108   17.7177 C   0  0  0  0  0  0  0  0  0  0  0  0
    3.6373   -9.5349   16.0582 N   0  0  0  0  0  0  0  0  0  0  0  0
    9.9275   -4.8001   18.0438 N   0  0  0  0  0  0  0  0  0  0  0  0
    8.5908   -5.7425   16.4412 C   0  0  0  0  0  0  0  0  0  0  0  0
   10.5993   -4.8981   21.6068 C   0  0  0  0  0  0  0  0  0  0  0  0
   10.4258   -3.0106   23.0998 C   0  0  0  0  0  0  0  0  0  0  0  0
   10.2148   -3.4364   25.4200 C   0  0  0  0  0  0  0  0  0  0  0  0
    9.7853   -1.1840   24.4927 C   0  0  0  0  0  0  0  0  0  0  0  0
    5.0276   -8.5227   17.5352 C   0  0  0  0  0  0  0  0  0  0  0  0
    9.8187   -2.0895   25.5800 C   0  0  0  0  0  0  0  0  0  0  0  0
    5.6473   -8.7216   15.3158 C   0  0  0  0  0  0  0  0  0  0  0  0
   10.7581   -3.1233   19.4720 N   0  0  0  0  0  0  0  0  0  0  0  0
    9.9571   -4.0573   16.8866 C   0  0  0  0  0  0  0  0  0  0  0  0
    7.6213   -6.5618   16.0087 C   0  0  0  0  0  0  0  0  0  0  0  0
   10.8583   -2.6527   20.7222 C   0  0  0  0  0  0  0  0  0  0  0  0
   10.6412   -3.5089   21.7936 C   0  0  0  0  0  0  0  0  0  0  0  0
   10.4972   -3.8968   24.1589 C   0  0  0  0  0  0  0  0  0  0  0  0
    5.9260   -8.2736   16.5517 C   0  0  0  0  0  0  0  0  0  0  0  0
    3.8816   -9.1166   17.2493 C   0  0  0  0  0  0  0  0  0  0  0  0
   10.1297   -1.6575   23.2324 C   0  0  0  0  0  0  0  0  0  0  0  0
    9.4684   -1.6929   26.7263 F   0  0  0  0  0  0  0  0  0  0  0  0
    7.7963   -7.7906   17.9837 C   0  0  0  0  0  0  0  0  0  0  0  0
   10.5884   -3.0725   16.7902 O   0  0  0  0  0  0  0  0  0  0  0  0
   10.4323   -5.3494   20.3516 C   0  0  0  0  0  0  0  0  0  0  0  0
    7.1156   -7.5454   16.8218 C   0  0  0  0  0  0  0  0  0  0  0  0
   10.3885   -4.4388   19.2773 C   0  0  0  0  0  0  0  0  0  0  0  0
    4.5160   -9.3822   15.0841 C   0  0  0  0  0  0  0  0  0  0  0  0
  1  3  4  0
  1 24  4  0
  2  6  4  0
  2 15  4  0
  3  5  4  0
  3  6  4  0
  4 21  4  0
  4 29  4  0
  5 15  4  0
  5 28  1  0
  6 16  4  0
  7 18  4  0
  7 26  4  0
  8 18  1  0
  8 19  4  0
  8 22  4  0
  9 12  4  0
  9 19  4  0
 10 12  4  0
 10 22  4  0
 11 20  4  0
 11 21  4  0
 12 23  1  0
 13 20  4  0
 13 29  4  0
 14 17  4  0
 14 28  4  0
 15 25  2  0
 16 27  4  0
 17 18  4  0
 20 27  1  0
 24 27  4  0
 26 28  4  0
M  END
$$$$

 Created by Python create_sdf_string function

 29 33  0  0  0  0  0  0  0  0999 V2000
    8.8270   -7.0288   18.4251 C   0  0  0  0  0  0  0  0  0  0  0  0
    9.1576   -4.6236   15.8860 O   0  0  0  0  0  0  0  0  0  0  0  0
    9.1509   -5.9108   17.7177 C   0  0  0  0  0  0  0  0  0  0  0  0
    3.6373   -9.5349   16.0582 N   0  0  0  0  0  0  0  0  0  0  0  0
    9.9275   -4.8001   18.0438 N   0  0  0  0  0  0  0  0  0  0  0  0
    8.5908   -5.7425   16.4412 C   0  0  0  0  0  0  0  0  0  0  0  0
   10.5993   -4.8981   21.6068 C   0  0  0  0  0  0  0  0  0  0  0  0
   10.4258   -3.0106   23.0998 C   0  0  0  0  0  0  0  0  0  0  0  0
   10.2148   -3.4364   25.4200 C   0  0  0  0  0  0  0  0  0  0  0  0
    9.7853   -1.1840   24.4927 C   0  0  0  0  0  0  0  0  0  0  0  0
    5.0276   -8.5227   17.5352 C   0  0  0  0  0  0  0  0  0  0  0  0
    9.8187   -2.0895   25.5800 C   0  0  0  0  0  0  0  0  0  0  0  0
    5.6473   -8.7216   15.3158 C   0  0  0  0  0  0  0  0  0  0  0  0
   10.7581   -3.1233   19.4720 N   0  0  0  0  0  0  0  0  0  0  0  0
    9.9571   -4.0573   16.8866 C   0  0  0  0  0  0  0  0  0  0  0  0
    7.6213   -6.5618   16.0087 C   0  0  0  0  0  0  0  0  0  0  0  0
   10.8583   -2.6527   20.7222 C   0  0  0  0  0  0  0  0  0  0  0  0
   10.6412   -3.5089   21.7936 C   0  0  0  0  0  0  0  0  0  0  0  0
   10.4972   -3.8968   24.1589 C   0  0  0  0  0  0  0  0  0  0  0  0
    5.9260   -8.2736   16.5517 C   0  0  0  0  0  0  0  0  0  0  0  0
    3.8816   -9.1166   17.2493 C   0  0  0  0  0  0  0  0  0  0  0  0
   10.1297   -1.6575   23.2324 C   0  0  0  0  0  0  0  0  0  0  0  0
    9.4684   -1.6929   26.7263 F   0  0  0  0  0  0  0  0  0  0  0  0
    7.7963   -7.7906   17.9837 C   0  0  0  0  0  0  0  0  0  0  0  0
   10.5884   -3.0725   16.7902 O   0  0  0  0  0  0  0  0  0  0  0  0
   10.4323   -5.3494   20.3516 C   0  0  0  0  0  0  0  0  0  0  0  0
    7.1156   -7.5454   16.8218 C   0  0  0  0  0  0  0  0  0  0  0  0
   10.3885   -4.4388   19.2773 C   0  0  0  0  0  0  0  0  0  0  0  0
    4.5160   -9.3822   15.0841 C   0  0  0  0  0  0  0  0  0  0  0  0
  1  3  4  0
  1 24  4  0
  2  6  4  0
  2 15  4  0
  3  5  4  0
  3  6  4  0
  4 21  4  0
  4 29  4  0
  5 15  4  0
  5 28  1  0
  6 16  4  0
  7 18  4  0
  7 26  4  0
  8 18  1  0
  8 19  4  0
  8 22  4  0
  9 12  4  0
  9 19  4  0
 10 12  4  0
 10 22  4  0
 11 20  4  0
 11 21  4  0
 12 23  1  0
 13 20  4  0
 13 29  4  0
 14 17  4  0
 14 28  4  0
 15 25  2  0
 16 27  4  0
 17 18  4  0
 20 27  1  0
 24 27  4  0
 26 28  4  0
M  END
$$$$

 Created by Python create_sdf_string function

 29 33  0  0  0  0  0  0  0  0999 V2000
    8.8270   -7.0288   18.4251 C   0  0  0  0  0  0  0  0  0  0  0  0
    9.1576   -4.6236   15.8860 O   0  0  0  0  0  0  0  0  0  0  0  0
    9.1509   -5.9108   17.7177 C   0  0  0  0  0  0  0  0  0  0  0  0
    3.6373   -9.5349   16.0582 N   0  0  0  0  0  0  0  0  0  0  0  0
    9.9275   -4.8001   18.0438 N   0  0  0  0  0  0  0  0  0  0  0  0
    8.5908   -5.7425   16.4412 C   0  0  0  0  0  0  0  0  0  0  0  0
   10.5993   -4.8981   21.6068 C   0  0  0  0  0  0  0  0  0  0  0  0
   10.4258   -3.0106   23.0998 C   0  0  0  0  0  0  0  0  0  0  0  0
   10.2148   -3.4364   25.4200 C   0  0  0  0  0  0  0  0  0  0  0  0
    9.7853   -1.1840   24.4927 C   0  0  0  0  0  0  0  0  0  0  0  0
    5.0276   -8.5227   17.5352 C   0  0  0  0  0  0  0  0  0  0  0  0
    9.8187   -2.0895   25.5800 C   0  0  0  0  0  0  0  0  0  0  0  0
    5.6473   -8.7216   15.3158 C   0  0  0  0  0  0  0  0  0  0  0  0
   10.7581   -3.1233   19.4720 N   0  0  0  0  0  0  0  0  0  0  0  0
    9.9571   -4.0573   16.8866 C   0  0  0  0  0  0  0  0  0  0  0  0
    7.6213   -6.5618   16.0087 C   0  0  0  0  0  0  0  0  0  0  0  0
   10.8583   -2.6527   20.7222 C   0  0  0  0  0  0  0  0  0  0  0  0
   10.6412   -3.5089   21.7936 C   0  0  0  0  0  0  0  0  0  0  0  0
   10.4972   -3.8968   24.1589 C   0  0  0  0  0  0  0  0  0  0  0  0
    5.9260   -8.2736   16.5517 C   0  0  0  0  0  0  0  0  0  0  0  0
    3.8816   -9.1166   17.2493 C   0  0  0  0  0  0  0  0  0  0  0  0
   10.1297   -1.6575   23.2324 C   0  0  0  0  0  0  0  0  0  0  0  0
    9.4684   -1.6929   26.7263 F   0  0  0  0  0  0  0  0  0  0  0  0
    7.7963   -7.7906   17.9837 C   0  0  0  0  0  0  0  0  0  0  0  0
   10.5884   -3.0725   16.7902 O   0  0  0  0  0  0  0  0  0  0  0  0
   10.4323   -5.3494   20.3516 C   0  0  0  0  0  0  0  0  0  0  0  0
    7.1156   -7.5454   16.8218 C   0  0  0  0  0  0  0  0  0  0  0  0
   10.3885   -4.4388   19.2773 C   0  0  0  0  0  0  0  0  0  0  0  0
    4.5160   -9.3822   15.0841 C   0  0  0  0  0  0  0  0  0  0  0  0
  1  3  4  0
  1 24  4  0
  2  6  4  0
  2 15  4  0
  3  5  4  0
  3  6  4  0
  4 21  4  0
  4 29  4  0
  5 15  4  0
  5 28  1  0
  6 16  4  0
  7 18  4  0
  7 26  4  0
  8 18  1  0
  8 19  4  0
  8 22  4  0
  9 12  4  0
  9 19  4  0
 10 12  4  0
 10 22  4  0
 11 20  4  0
 11 21  4  0
 12 23  1  0
 13 20  4  0
 13 29  4  0
 14 17  4  0
 14 28  4  0
 15 25  2  0
 16 27  4  0
 17 18  4  0
 20 27  1  0
 24 27  4  0
 26 28  4  0
M  END
$$$$

 Created by Python create_sdf_string function

 29 33  0  0  0  0  0  0  0  0999 V2000
    8.8270   -7.0288   18.4251 C   0  0  0  0  0  0  0  0  0  0  0  0
    9.1576   -4.6236   15.8860 O   0  0  0  0  0  0  0  0  0  0  0  0
    9.1509   -5.9108   17.7177 C   0  0  0  0  0  0  0  0  0  0  0  0
    3.6373   -9.5349   16.0582 N   0  0  0  0  0  0  0  0  0  0  0  0
    9.9275   -4.8001   18.0438 N   0  0  0  0  0  0  0  0  0  0  0  0
    8.5908   -5.7425   16.4412 C   0  0  0  0  0  0  0  0  0  0  0  0
   10.5993   -4.8981   21.6068 C   0  0  0  0  0  0  0  0  0  0  0  0
   10.4258   -3.0106   23.0998 C   0  0  0  0  0  0  0  0  0  0  0  0
   10.2148   -3.4364   25.4200 C   0  0  0  0  0  0  0  0  0  0  0  0
    9.7853   -1.1840   24.4927 C   0  0  0  0  0  0  0  0  0  0  0  0
    5.0276   -8.5227   17.5352 C   0  0  0  0  0  0  0  0  0  0  0  0
    9.8187   -2.0895   25.5800 C   0  0  0  0  0  0  0  0  0  0  0  0
    5.6473   -8.7216   15.3158 C   0  0  0  0  0  0  0  0  0  0  0  0
   10.7581   -3.1233   19.4720 N   0  0  0  0  0  0  0  0  0  0  0  0
    9.9571   -4.0573   16.8866 C   0  0  0  0  0  0  0  0  0  0  0  0
    7.6213   -6.5618   16.0087 C   0  0  0  0  0  0  0  0  0  0  0  0
   10.8583   -2.6527   20.7222 C   0  0  0  0  0  0  0  0  0  0  0  0
   10.6412   -3.5089   21.7936 C   0  0  0  0  0  0  0  0  0  0  0  0
   10.4972   -3.8968   24.1589 C   0  0  0  0  0  0  0  0  0  0  0  0
    5.9260   -8.2736   16.5517 C   0  0  0  0  0  0  0  0  0  0  0  0
    3.8816   -9.1166   17.2493 C   0  0  0  0  0  0  0  0  0  0  0  0
   10.1297   -1.6575   23.2324 C   0  0  0  0  0  0  0  0  0  0  0  0
    9.4684   -1.6929   26.7263 F   0  0  0  0  0  0  0  0  0  0  0  0
    7.7963   -7.7906   17.9837 C   0  0  0  0  0  0  0  0  0  0  0  0
   10.5884   -3.0725   16.7902 O   0  0  0  0  0  0  0  0  0  0  0  0
   10.4323   -5.3494   20.3516 C   0  0  0  0  0  0  0  0  0  0  0  0
    7.1156   -7.5454   16.8218 C   0  0  0  0  0  0  0  0  0  0  0  0
   10.3885   -4.4388   19.2773 C   0  0  0  0  0  0  0  0  0  0  0  0
    4.5160   -9.3822   15.0841 C   0  0  0  0  0  0  0  0  0  0  0  0
  1  3  4  0
  1 24  4  0
  2  6  4  0
  2 15  4  0
  3  5  4  0
  3  6  4  0
  4 21  4  0
  4 29  4  0
  5 15  4  0
  5 28  1  0
  6 16  4  0
  7 18  4  0
  7 26  4  0
  8 18  1  0
  8 19  4  0
  8 22  4  0
  9 12  4  0
  9 19  4  0
 10 12  4  0
 10 22  4  0
 11 20  4  0
 11 21  4  0
 12 23  1  0
 13 20  4  0
 13 29  4  0
 14 17  4  0
 14 28  4  0
 15 25  2  0
 16 27  4  0
 17 18  4  0
 20 27  1  0
 24 27  4  0
 26 28  4  0
M  END
$$$$

 Created by Python create_sdf_string function

 29 33  0  0  0  0  0  0  0  0999 V2000
    8.8270   -7.0288   18.4251 C   0  0  0  0  0  0  0  0  0  0  0  0
    9.1576   -4.6236   15.8860 O   0  0  0  0  0  0  0  0  0  0  0  0
    9.1509   -5.9108   17.7177 C   0  0  0  0  0  0  0  0  0  0  0  0
    3.6373   -9.5349   16.0582 N   0  0  0  0  0  0  0  0  0  0  0  0
    9.9275   -4.8001   18.0438 N   0  0  0  0  0  0  0  0  0  0  0  0
    8.5908   -5.7425   16.4412 C   0  0  0  0  0  0  0  0  0  0  0  0
   10.5993   -4.8981   21.6068 C   0  0  0  0  0  0  0  0  0  0  0  0
   10.4258   -3.0106   23.0998 C   0  0  0  0  0  0  0  0  0  0  0  0
   10.2148   -3.4364   25.4200 C   0  0  0  0  0  0  0  0  0  0  0  0
    9.7853   -1.1840   24.4927 C   0  0  0  0  0  0  0  0  0  0  0  0
    5.0276   -8.5227   17.5352 C   0  0  0  0  0  0  0  0  0  0  0  0
    9.8187   -2.0895   25.5800 C   0  0  0  0  0  0  0  0  0  0  0  0
    5.6473   -8.7216   15.3158 C   0  0  0  0  0  0  0  0  0  0  0  0
   10.7581   -3.1233   19.4720 N   0  0  0  0  0  0  0  0  0  0  0  0
    9.9571   -4.0573   16.8866 C   0  0  0  0  0  0  0  0  0  0  0  0
    7.6213   -6.5618   16.0087 C   0  0  0  0  0  0  0  0  0  0  0  0
   10.8583   -2.6527   20.7222 C   0  0  0  0  0  0  0  0  0  0  0  0
   10.6412   -3.5089   21.7936 C   0  0  0  0  0  0  0  0  0  0  0  0
   10.4972   -3.8968   24.1589 C   0  0  0  0  0  0  0  0  0  0  0  0
    5.9260   -8.2736   16.5517 C   0  0  0  0  0  0  0  0  0  0  0  0
    3.8816   -9.1166   17.2493 C   0  0  0  0  0  0  0  0  0  0  0  0
   10.1297   -1.6575   23.2324 C   0  0  0  0  0  0  0  0  0  0  0  0
    9.4684   -1.6929   26.7263 F   0  0  0  0  0  0  0  0  0  0  0  0
    7.7963   -7.7906   17.9837 C   0  0  0  0  0  0  0  0  0  0  0  0
   10.5884   -3.0725   16.7902 O   0  0  0  0  0  0  0  0  0  0  0  0
   10.4323   -5.3494   20.3516 C   0  0  0  0  0  0  0  0  0  0  0  0
    7.1156   -7.5454   16.8218 C   0  0  0  0  0  0  0  0  0  0  0  0
   10.3885   -4.4388   19.2773 C   0  0  0  0  0  0  0  0  0  0  0  0
    4.5160   -9.3822   15.0841 C   0  0  0  0  0  0  0  0  0  0  0  0
  1  3  4  0
  1 24  4  0
  2  6  4  0
  2 15  4  0
  3  5  4  0
  3  6  4  0
  4 21  4  0
  4 29  4  0
  5 15  4  0
  5 28  1  0
  6 16  4  0
  7 18  4  0
  7 26  4  0
  8 18  1  0
  8 19  4  0
  8 22  4  0
  9 12  4  0
  9 19  4  0
 10 12  4  0
 10 22  4  0
 11 20  4  0
 11 21  4  0
 12 23  1  0
 13 20  4  0
 13 29  4  0
 14 17  4  0
 14 28  4  0
 15 25  2  0
 16 27  4  0
 17 18  4  0
 20 27  1  0
 24 27  4  0
 26 28  4  0
M  END
$$$$

 Created by Python create_sdf_string function

 29 33  0  0  0  0  0  0  0  0999 V2000
    8.8270   -7.0288   18.4251 C   0  0  0  0  0  0  0  0  0  0  0  0
    9.1576   -4.6236   15.8860 O   0  0  0  0  0  0  0  0  0  0  0  0
    9.1509   -5.9108   17.7177 C   0  0  0  0  0  0  0  0  0  0  0  0
    3.6373   -9.5349   16.0582 N   0  0  0  0  0  0  0  0  0  0  0  0
    9.9275   -4.8001   18.0438 N   0  0  0  0  0  0  0  0  0  0  0  0
    8.5908   -5.7425   16.4412 C   0  0  0  0  0  0  0  0  0  0  0  0
   10.5993   -4.8981   21.6068 C   0  0  0  0  0  0  0  0  0  0  0  0
   10.4258   -3.0106   23.0998 C   0  0  0  0  0  0  0  0  0  0  0  0
   10.2148   -3.4364   25.4200 C   0  0  0  0  0  0  0  0  0  0  0  0
    9.7853   -1.1840   24.4927 C   0  0  0  0  0  0  0  0  0  0  0  0
    5.0276   -8.5227   17.5352 C   0  0  0  0  0  0  0  0  0  0  0  0
    9.8187   -2.0895   25.5800 C   0  0  0  0  0  0  0  0  0  0  0  0
    5.6473   -8.7216   15.3158 C   0  0  0  0  0  0  0  0  0  0  0  0
   10.7581   -3.1233   19.4720 N   0  0  0  0  0  0  0  0  0  0  0  0
    9.9571   -4.0573   16.8866 C   0  0  0  0  0  0  0  0  0  0  0  0
    7.6213   -6.5618   16.0087 C   0  0  0  0  0  0  0  0  0  0  0  0
   10.8583   -2.6527   20.7222 C   0  0  0  0  0  0  0  0  0  0  0  0
   10.6412   -3.5089   21.7936 C   0  0  0  0  0  0  0  0  0  0  0  0
   10.4972   -3.8968   24.1589 C   0  0  0  0  0  0  0  0  0  0  0  0
    5.9260   -8.2736   16.5517 C   0  0  0  0  0  0  0  0  0  0  0  0
    3.8816   -9.1166   17.2493 C   0  0  0  0  0  0  0  0  0  0  0  0
   10.1297   -1.6575   23.2324 C   0  0  0  0  0  0  0  0  0  0  0  0
    9.4684   -1.6929   26.7263 F   0  0  0  0  0  0  0  0  0  0  0  0
    7.7963   -7.7906   17.9837 C   0  0  0  0  0  0  0  0  0  0  0  0
   10.5884   -3.0725   16.7902 O   0  0  0  0  0  0  0  0  0  0  0  0
   10.4323   -5.3494   20.3516 C   0  0  0  0  0  0  0  0  0  0  0  0
    7.1156   -7.5454   16.8218 C   0  0  0  0  0  0  0  0  0  0  0  0
   10.3885   -4.4388   19.2773 C   0  0  0  0  0  0  0  0  0  0  0  0
    4.5160   -9.3822   15.0841 C   0  0  0  0  0  0  0  0  0  0  0  0
  1  3  4  0
  1 24  4  0
  2  6  4  0
  2 15  4  0
  3  5  4  0
  3  6  4  0
  4 21  4  0
  4 29  4  0
  5 15  4  0
  5 28  1  0
  6 16  4  0
  7 18  4  0
  7 26  4  0
  8 18  1  0
  8 19  4  0
  8 22  4  0
  9 12  4  0
  9 19  4  0
 10 12  4  0
 10 22  4  0
 11 20  4  0
 11 21  4  0
 12 23  1  0
 13 20  4  0
 13 29  4  0
 14 17  4  0
 14 28  4  0
 15 25  2  0
 16 27  4  0
 17 18  4  0
 20 27  1  0
 24 27  4  0
 26 28  4  0
M  END
$$$$

 Created by Python create_sdf_string function

 29 33  0  0  0  0  0  0  0  0999 V2000
    8.8270   -7.0288   18.4251 C   0  0  0  0  0  0  0  0  0  0  0  0
    9.1576   -4.6236   15.8860 O   0  0  0  0  0  0  0  0  0  0  0  0
    9.1509   -5.9108   17.7177 C   0  0  0  0  0  0  0  0  0  0  0  0
    3.6373   -9.5349   16.0582 N   0  0  0  0  0  0  0  0  0  0  0  0
    9.9275   -4.8001   18.0438 N   0  0  0  0  0  0  0  0  0  0  0  0
    8.5908   -5.7425   16.4412 C   0  0  0  0  0  0  0  0  0  0  0  0
   10.5993   -4.8981   21.6068 C   0  0  0  0  0  0  0  0  0  0  0  0
   10.4258   -3.0106   23.0998 C   0  0  0  0  0  0  0  0  0  0  0  0
   10.2148   -3.4364   25.4200 C   0  0  0  0  0  0  0  0  0  0  0  0
    9.7853   -1.1840   24.4927 C   0  0  0  0  0  0  0  0  0  0  0  0
    5.0276   -8.5227   17.5352 C   0  0  0  0  0  0  0  0  0  0  0  0
    9.8187   -2.0895   25.5800 C   0  0  0  0  0  0  0  0  0  0  0  0
    5.6473   -8.7216   15.3158 C   0  0  0  0  0  0  0  0  0  0  0  0
   10.7581   -3.1233   19.4720 N   0  0  0  0  0  0  0  0  0  0  0  0
    9.9571   -4.0573   16.8866 C   0  0  0  0  0  0  0  0  0  0  0  0
    7.6213   -6.5618   16.0087 C   0  0  0  0  0  0  0  0  0  0  0  0
   10.8583   -2.6527   20.7222 C   0  0  0  0  0  0  0  0  0  0  0  0
   10.6412   -3.5089   21.7936 C   0  0  0  0  0  0  0  0  0  0  0  0
   10.4972   -3.8968   24.1589 C   0  0  0  0  0  0  0  0  0  0  0  0
    5.9260   -8.2736   16.5517 C   0  0  0  0  0  0  0  0  0  0  0  0
    3.8816   -9.1166   17.2493 C   0  0  0  0  0  0  0  0  0  0  0  0
   10.1297   -1.6575   23.2324 C   0  0  0  0  0  0  0  0  0  0  0  0
    9.4684   -1.6929   26.7263 F   0  0  0  0  0  0  0  0  0  0  0  0
    7.7963   -7.7906   17.9837 C   0  0  0  0  0  0  0  0  0  0  0  0
   10.5884   -3.0725   16.7902 O   0  0  0  0  0  0  0  0  0  0  0  0
   10.4323   -5.3494   20.3516 C   0  0  0  0  0  0  0  0  0  0  0  0
    7.1156   -7.5454   16.8218 C   0  0  0  0  0  0  0  0  0  0  0  0
   10.3885   -4.4388   19.2773 C   0  0  0  0  0  0  0  0  0  0  0  0
    4.5160   -9.3822   15.0841 C   0  0  0  0  0  0  0  0  0  0  0  0
  1  3  4  0
  1 24  4  0
  2  6  4  0
  2 15  4  0
  3  5  4  0
  3  6  4  0
  4 21  4  0
  4 29  4  0
  5 15  4  0
  5 28  1  0
  6 16  4  0
  7 18  4  0
  7 26  4  0
  8 18  1  0
  8 19  4  0
  8 22  4  0
  9 12  4  0
  9 19  4  0
 10 12  4  0
 10 22  4  0
 11 20  4  0
 11 21  4  0
 12 23  1  0
 13 20  4  0
 13 29  4  0
 14 17  4  0
 14 28  4  0
 15 25  2  0
 16 27  4  0
 17 18  4  0
 20 27  1  0
 24 27  4  0
 26 28  4  0
M  END
$$$$

 Created by Python create_sdf_string function

 29 33  0  0  0  0  0  0  0  0999 V2000
    8.8270   -7.0288   18.4251 C   0  0  0  0  0  0  0  0  0  0  0  0
    9.1576   -4.6236   15.8860 O   0  0  0  0  0  0  0  0  0  0  0  0
    9.1509   -5.9108   17.7177 C   0  0  0  0  0  0  0  0  0  0  0  0
    3.6373   -9.5349   16.0582 N   0  0  0  0  0  0  0  0  0  0  0  0
    9.9275   -4.8001   18.0438 N   0  0  0  0  0  0  0  0  0  0  0  0
    8.5908   -5.7425   16.4412 C   0  0  0  0  0  0  0  0  0  0  0  0
   10.5993   -4.8981   21.6068 C   0  0  0  0  0  0  0  0  0  0  0  0
   10.4258   -3.0106   23.0998 C   0  0  0  0  0  0  0  0  0  0  0  0
   10.2148   -3.4364   25.4200 C   0  0  0  0  0  0  0  0  0  0  0  0
    9.7853   -1.1840   24.4927 C   0  0  0  0  0  0  0  0  0  0  0  0
    5.0276   -8.5227   17.5352 C   0  0  0  0  0  0  0  0  0  0  0  0
    9.8187   -2.0895   25.5800 C   0  0  0  0  0  0  0  0  0  0  0  0
    5.6473   -8.7216   15.3158 C   0  0  0  0  0  0  0  0  0  0  0  0
   10.7581   -3.1233   19.4720 N   0  0  0  0  0  0  0  0  0  0  0  0
    9.9571   -4.0573   16.8866 C   0  0  0  0  0  0  0  0  0  0  0  0
    7.6213   -6.5618   16.0087 C   0  0  0  0  0  0  0  0  0  0  0  0
   10.8583   -2.6527   20.7222 C   0  0  0  0  0  0  0  0  0  0  0  0
   10.6412   -3.5089   21.7936 C   0  0  0  0  0  0  0  0  0  0  0  0
   10.4972   -3.8968   24.1589 C   0  0  0  0  0  0  0  0  0  0  0  0
    5.9260   -8.2736   16.5517 C   0  0  0  0  0  0  0  0  0  0  0  0
    3.8816   -9.1166   17.2493 C   0  0  0  0  0  0  0  0  0  0  0  0
   10.1297   -1.6575   23.2324 C   0  0  0  0  0  0  0  0  0  0  0  0
    9.4684   -1.6929   26.7263 F   0  0  0  0  0  0  0  0  0  0  0  0
    7.7963   -7.7906   17.9837 C   0  0  0  0  0  0  0  0  0  0  0  0
   10.5884   -3.0725   16.7902 O   0  0  0  0  0  0  0  0  0  0  0  0
   10.4323   -5.3494   20.3516 C   0  0  0  0  0  0  0  0  0  0  0  0
    7.1156   -7.5454   16.8218 C   0  0  0  0  0  0  0  0  0  0  0  0
   10.3885   -4.4388   19.2773 C   0  0  0  0  0  0  0  0  0  0  0  0
    4.5160   -9.3822   15.0841 C   0  0  0  0  0  0  0  0  0  0  0  0
  1  3  4  0
  1 24  4  0
  2  6  4  0
  2 15  4  0
  3  5  4  0
  3  6  4  0
  4 21  4  0
  4 29  4  0
  5 15  4  0
  5 28  1  0
  6 16  4  0
  7 18  4  0
  7 26  4  0
  8 18  1  0
  8 19  4  0
  8 22  4  0
  9 12  4  0
  9 19  4  0
 10 12  4  0
 10 22  4  0
 11 20  4  0
 11 21  4  0
 12 23  1  0
 13 20  4  0
 13 29  4  0
 14 17  4  0
 14 28  4  0
 15 25  2  0
 16 27  4  0
 17 18  4  0
 20 27  1  0
 24 27  4  0
 26 28  4  0
M  END
$$$$

 Created by Python create_sdf_string function

 29 33  0  0  0  0  0  0  0  0999 V2000
    8.8270   -7.0288   18.4251 C   0  0  0  0  0  0  0  0  0  0  0  0
    9.1576   -4.6236   15.8860 O   0  0  0  0  0  0  0  0  0  0  0  0
    9.1509   -5.9108   17.7177 C   0  0  0  0  0  0  0  0  0  0  0  0
    3.6373   -9.5349   16.0582 N   0  0  0  0  0  0  0  0  0  0  0  0
    9.9275   -4.8001   18.0438 N   0  0  0  0  0  0  0  0  0  0  0  0
    8.5908   -5.7425   16.4412 C   0  0  0  0  0  0  0  0  0  0  0  0
   10.5993   -4.8981   21.6068 C   0  0  0  0  0  0  0  0  0  0  0  0
   10.4258   -3.0106   23.0998 C   0  0  0  0  0  0  0  0  0  0  0  0
   10.2148   -3.4364   25.4200 C   0  0  0  0  0  0  0  0  0  0  0  0
    9.7853   -1.1840   24.4927 C   0  0  0  0  0  0  0  0  0  0  0  0
    5.0276   -8.5227   17.5352 C   0  0  0  0  0  0  0  0  0  0  0  0
    9.8187   -2.0895   25.5800 C   0  0  0  0  0  0  0  0  0  0  0  0
    5.6473   -8.7216   15.3158 C   0  0  0  0  0  0  0  0  0  0  0  0
   10.7581   -3.1233   19.4720 N   0  0  0  0  0  0  0  0  0  0  0  0
    9.9571   -4.0573   16.8866 C   0  0  0  0  0  0  0  0  0  0  0  0
    7.6213   -6.5618   16.0087 C   0  0  0  0  0  0  0  0  0  0  0  0
   10.8583   -2.6527   20.7222 C   0  0  0  0  0  0  0  0  0  0  0  0
   10.6412   -3.5089   21.7936 C   0  0  0  0  0  0  0  0  0  0  0  0
   10.4972   -3.8968   24.1589 C   0  0  0  0  0  0  0  0  0  0  0  0
    5.9260   -8.2736   16.5517 C   0  0  0  0  0  0  0  0  0  0  0  0
    3.8816   -9.1166   17.2493 C   0  0  0  0  0  0  0  0  0  0  0  0
   10.1297   -1.6575   23.2324 C   0  0  0  0  0  0  0  0  0  0  0  0
    9.4684   -1.6929   26.7263 F   0  0  0  0  0  0  0  0  0  0  0  0
    7.7963   -7.7906   17.9837 C   0  0  0  0  0  0  0  0  0  0  0  0
   10.5884   -3.0725   16.7902 O   0  0  0  0  0  0  0  0  0  0  0  0
   10.4323   -5.3494   20.3516 C   0  0  0  0  0  0  0  0  0  0  0  0
    7.1156   -7.5454   16.8218 C   0  0  0  0  0  0  0  0  0  0  0  0
   10.3885   -4.4388   19.2773 C   0  0  0  0  0  0  0  0  0  0  0  0
    4.5160   -9.3822   15.0841 C   0  0  0  0  0  0  0  0  0  0  0  0
  1  3  4  0
  1 24  4  0
  2  6  4  0
  2 15  4  0
  3  5  4  0
  3  6  4  0
  4 21  4  0
  4 29  4  0
  5 15  4  0
  5 28  1  0
  6 16  4  0
  7 18  4  0
  7 26  4  0
  8 18  1  0
  8 19  4  0
  8 22  4  0
  9 12  4  0
  9 19  4  0
 10 12  4  0
 10 22  4  0
 11 20  4  0
 11 21  4  0
 12 23  1  0
 13 20  4  0
 13 29  4  0
 14 17  4  0
 14 28  4  0
 15 25  2  0
 16 27  4  0
 17 18  4  0
 20 27  1  0
 24 27  4  0
 26 28  4  0
M  END
$$$$

 Created by Python create_sdf_string function

 29 33  0  0  0  0  0  0  0  0999 V2000
    8.8270   -7.0288   18.4251 C   0  0  0  0  0  0  0  0  0  0  0  0
    9.1576   -4.6236   15.8860 O   0  0  0  0  0  0  0  0  0  0  0  0
    9.1509   -5.9108   17.7177 C   0  0  0  0  0  0  0  0  0  0  0  0
    3.6373   -9.5349   16.0582 N   0  0  0  0  0  0  0  0  0  0  0  0
    9.9275   -4.8001   18.0438 N   0  0  0  0  0  0  0  0  0  0  0  0
    8.5908   -5.7425   16.4412 C   0  0  0  0  0  0  0  0  0  0  0  0
   10.5993   -4.8981   21.6068 C   0  0  0  0  0  0  0  0  0  0  0  0
   10.4258   -3.0106   23.0998 C   0  0  0  0  0  0  0  0  0  0  0  0
   10.2148   -3.4364   25.4200 C   0  0  0  0  0  0  0  0  0  0  0  0
    9.7853   -1.1840   24.4927 C   0  0  0  0  0  0  0  0  0  0  0  0
    5.0276   -8.5227   17.5352 C   0  0  0  0  0  0  0  0  0  0  0  0
    9.8187   -2.0895   25.5800 C   0  0  0  0  0  0  0  0  0  0  0  0
    5.6473   -8.7216   15.3158 C   0  0  0  0  0  0  0  0  0  0  0  0
   10.7581   -3.1233   19.4720 N   0  0  0  0  0  0  0  0  0  0  0  0
    9.9571   -4.0573   16.8866 C   0  0  0  0  0  0  0  0  0  0  0  0
    7.6213   -6.5618   16.0087 C   0  0  0  0  0  0  0  0  0  0  0  0
   10.8583   -2.6527   20.7222 C   0  0  0  0  0  0  0  0  0  0  0  0
   10.6412   -3.5089   21.7936 C   0  0  0  0  0  0  0  0  0  0  0  0
   10.4972   -3.8968   24.1589 C   0  0  0  0  0  0  0  0  0  0  0  0
    5.9260   -8.2736   16.5517 C   0  0  0  0  0  0  0  0  0  0  0  0
    3.8816   -9.1166   17.2493 C   0  0  0  0  0  0  0  0  0  0  0  0
   10.1297   -1.6575   23.2324 C   0  0  0  0  0  0  0  0  0  0  0  0
    9.4684   -1.6929   26.7263 F   0  0  0  0  0  0  0  0  0  0  0  0
    7.7963   -7.7906   17.9837 C   0  0  0  0  0  0  0  0  0  0  0  0
   10.5884   -3.0725   16.7902 O   0  0  0  0  0  0  0  0  0  0  0  0
   10.4323   -5.3494   20.3516 C   0  0  0  0  0  0  0  0  0  0  0  0
    7.1156   -7.5454   16.8218 C   0  0  0  0  0  0  0  0  0  0  0  0
   10.3885   -4.4388   19.2773 C   0  0  0  0  0  0  0  0  0  0  0  0
    4.5160   -9.3822   15.0841 C   0  0  0  0  0  0  0  0  0  0  0  0
  1  3  4  0
  1 24  4  0
  2  6  4  0
  2 15  4  0
  3  5  4  0
  3  6  4  0
  4 21  4  0
  4 29  4  0
  5 15  4  0
  5 28  1  0
  6 16  4  0
  7 18  4  0
  7 26  4  0
  8 18  1  0
  8 19  4  0
  8 22  4  0
  9 12  4  0
  9 19  4  0
 10 12  4  0
 10 22  4  0
 11 20  4  0
 11 21  4  0
 12 23  1  0
 13 20  4  0
 13 29  4  0
 14 17  4  0
 14 28  4  0
 15 25  2  0
 16 27  4  0
 17 18  4  0
 20 27  1  0
 24 27  4  0
 26 28  4  0
M  END
$$$$

 Created by Python create_sdf_string function

 29 33  0  0  0  0  0  0  0  0999 V2000
    8.8270   -7.0288   18.4251 C   0  0  0  0  0  0  0  0  0  0  0  0
    9.1576   -4.6236   15.8860 O   0  0  0  0  0  0  0  0  0  0  0  0
    9.1509   -5.9108   17.7177 C   0  0  0  0  0  0  0  0  0  0  0  0
    3.6373   -9.5349   16.0582 N   0  0  0  0  0  0  0  0  0  0  0  0
    9.9275   -4.8001   18.0438 N   0  0  0  0  0  0  0  0  0  0  0  0
    8.5908   -5.7425   16.4412 C   0  0  0  0  0  0  0  0  0  0  0  0
   10.5993   -4.8981   21.6068 C   0  0  0  0  0  0  0  0  0  0  0  0
   10.4258   -3.0106   23.0998 C   0  0  0  0  0  0  0  0  0  0  0  0
   10.2148   -3.4364   25.4200 C   0  0  0  0  0  0  0  0  0  0  0  0
    9.7853   -1.1840   24.4927 C   0  0  0  0  0  0  0  0  0  0  0  0
    5.0276   -8.5227   17.5352 C   0  0  0  0  0  0  0  0  0  0  0  0
    9.8187   -2.0895   25.5800 C   0  0  0  0  0  0  0  0  0  0  0  0
    5.6473   -8.7216   15.3158 C   0  0  0  0  0  0  0  0  0  0  0  0
   10.7581   -3.1233   19.4720 N   0  0  0  0  0  0  0  0  0  0  0  0
    9.9571   -4.0573   16.8866 C   0  0  0  0  0  0  0  0  0  0  0  0
    7.6213   -6.5618   16.0087 C   0  0  0  0  0  0  0  0  0  0  0  0
   10.8583   -2.6527   20.7222 C   0  0  0  0  0  0  0  0  0  0  0  0
   10.6412   -3.5089   21.7936 C   0  0  0  0  0  0  0  0  0  0  0  0
   10.4972   -3.8968   24.1589 C   0  0  0  0  0  0  0  0  0  0  0  0
    5.9260   -8.2736   16.5517 C   0  0  0  0  0  0  0  0  0  0  0  0
    3.8816   -9.1166   17.2493 C   0  0  0  0  0  0  0  0  0  0  0  0
   10.1297   -1.6575   23.2324 C   0  0  0  0  0  0  0  0  0  0  0  0
    9.4684   -1.6929   26.7263 F   0  0  0  0  0  0  0  0  0  0  0  0
    7.7963   -7.7906   17.9837 C   0  0  0  0  0  0  0  0  0  0  0  0
   10.5884   -3.0725   16.7902 O   0  0  0  0  0  0  0  0  0  0  0  0
   10.4323   -5.3494   20.3516 C   0  0  0  0  0  0  0  0  0  0  0  0
    7.1156   -7.5454   16.8218 C   0  0  0  0  0  0  0  0  0  0  0  0
   10.3885   -4.4388   19.2773 C   0  0  0  0  0  0  0  0  0  0  0  0
    4.5160   -9.3822   15.0841 C   0  0  0  0  0  0  0  0  0  0  0  0
  1  3  4  0
  1 24  4  0
  2  6  4  0
  2 15  4  0
  3  5  4  0
  3  6  4  0
  4 21  4  0
  4 29  4  0
  5 15  4  0
  5 28  1  0
  6 16  4  0
  7 18  4  0
  7 26  4  0
  8 18  1  0
  8 19  4  0
  8 22  4  0
  9 12  4  0
  9 19  4  0
 10 12  4  0
 10 22  4  0
 11 20  4  0
 11 21  4  0
 12 23  1  0
 13 20  4  0
 13 29  4  0
 14 17  4  0
 14 28  4  0
 15 25  2  0
 16 27  4  0
 17 18  4  0
 20 27  1  0
 24 27  4  0
 26 28  4  0
M  END
$$$$

 Created by Python create_sdf_string function

 29 33  0  0  0  0  0  0  0  0999 V2000
    8.8270   -7.0288   18.4251 C   0  0  0  0  0  0  0  0  0  0  0  0
    9.1576   -4.6236   15.8860 O   0  0  0  0  0  0  0  0  0  0  0  0
    9.1509   -5.9108   17.7177 C   0  0  0  0  0  0  0  0  0  0  0  0
    3.6373   -9.5349   16.0582 N   0  0  0  0  0  0  0  0  0  0  0  0
    9.9275   -4.8001   18.0438 N   0  0  0  0  0  0  0  0  0  0  0  0
    8.5908   -5.7425   16.4412 C   0  0  0  0  0  0  0  0  0  0  0  0
   10.5993   -4.8981   21.6068 C   0  0  0  0  0  0  0  0  0  0  0  0
   10.4258   -3.0106   23.0998 C   0  0  0  0  0  0  0  0  0  0  0  0
   10.2148   -3.4364   25.4200 C   0  0  0  0  0  0  0  0  0  0  0  0
    9.7853   -1.1840   24.4927 C   0  0  0  0  0  0  0  0  0  0  0  0
    5.0276   -8.5227   17.5352 C   0  0  0  0  0  0  0  0  0  0  0  0
    9.8187   -2.0895   25.5800 C   0  0  0  0  0  0  0  0  0  0  0  0
    5.6473   -8.7216   15.3158 C   0  0  0  0  0  0  0  0  0  0  0  0
   10.7581   -3.1233   19.4720 N   0  0  0  0  0  0  0  0  0  0  0  0
    9.9571   -4.0573   16.8866 C   0  0  0  0  0  0  0  0  0  0  0  0
    7.6213   -6.5618   16.0087 C   0  0  0  0  0  0  0  0  0  0  0  0
   10.8583   -2.6527   20.7222 C   0  0  0  0  0  0  0  0  0  0  0  0
   10.6412   -3.5089   21.7936 C   0  0  0  0  0  0  0  0  0  0  0  0
   10.4972   -3.8968   24.1589 C   0  0  0  0  0  0  0  0  0  0  0  0
    5.9260   -8.2736   16.5517 C   0  0  0  0  0  0  0  0  0  0  0  0
    3.8816   -9.1166   17.2493 C   0  0  0  0  0  0  0  0  0  0  0  0
   10.1297   -1.6575   23.2324 C   0  0  0  0  0  0  0  0  0  0  0  0
    9.4684   -1.6929   26.7263 F   0  0  0  0  0  0  0  0  0  0  0  0
    7.7963   -7.7906   17.9837 C   0  0  0  0  0  0  0  0  0  0  0  0
   10.5884   -3.0725   16.7902 O   0  0  0  0  0  0  0  0  0  0  0  0
   10.4323   -5.3494   20.3516 C   0  0  0  0  0  0  0  0  0  0  0  0
    7.1156   -7.5454   16.8218 C   0  0  0  0  0  0  0  0  0  0  0  0
   10.3885   -4.4388   19.2773 C   0  0  0  0  0  0  0  0  0  0  0  0
    4.5160   -9.3822   15.0841 C   0  0  0  0  0  0  0  0  0  0  0  0
  1  3  4  0
  1 24  4  0
  2  6  4  0
  2 15  4  0
  3  5  4  0
  3  6  4  0
  4 21  4  0
  4 29  4  0
  5 15  4  0
  5 28  1  0
  6 16  4  0
  7 18  4  0
  7 26  4  0
  8 18  1  0
  8 19  4  0
  8 22  4  0
  9 12  4  0
  9 19  4  0
 10 12  4  0
 10 22  4  0
 11 20  4  0
 11 21  4  0
 12 23  1  0
 13 20  4  0
 13 29  4  0
 14 17  4  0
 14 28  4  0
 15 25  2  0
 16 27  4  0
 17 18  4  0
 20 27  1  0
 24 27  4  0
 26 28  4  0
M  END
$$$$

 Created by Python create_sdf_string function

 29 33  0  0  0  0  0  0  0  0999 V2000
    8.8270   -7.0288   18.4251 C   0  0  0  0  0  0  0  0  0  0  0  0
    9.1576   -4.6236   15.8860 O   0  0  0  0  0  0  0  0  0  0  0  0
    9.1509   -5.9108   17.7177 C   0  0  0  0  0  0  0  0  0  0  0  0
    3.6373   -9.5349   16.0582 N   0  0  0  0  0  0  0  0  0  0  0  0
    9.9275   -4.8001   18.0438 N   0  0  0  0  0  0  0  0  0  0  0  0
    8.5908   -5.7425   16.4412 C   0  0  0  0  0  0  0  0  0  0  0  0
   10.5993   -4.8981   21.6068 C   0  0  0  0  0  0  0  0  0  0  0  0
   10.4258   -3.0106   23.0998 C   0  0  0  0  0  0  0  0  0  0  0  0
   10.2148   -3.4364   25.4200 C   0  0  0  0  0  0  0  0  0  0  0  0
    9.7853   -1.1840   24.4927 C   0  0  0  0  0  0  0  0  0  0  0  0
    5.0276   -8.5227   17.5352 C   0  0  0  0  0  0  0  0  0  0  0  0
    9.8187   -2.0895   25.5800 C   0  0  0  0  0  0  0  0  0  0  0  0
    5.6473   -8.7216   15.3158 C   0  0  0  0  0  0  0  0  0  0  0  0
   10.7581   -3.1233   19.4720 N   0  0  0  0  0  0  0  0  0  0  0  0
    9.9571   -4.0573   16.8866 C   0  0  0  0  0  0  0  0  0  0  0  0
    7.6213   -6.5618   16.0087 C   0  0  0  0  0  0  0  0  0  0  0  0
   10.8583   -2.6527   20.7222 C   0  0  0  0  0  0  0  0  0  0  0  0
   10.6412   -3.5089   21.7936 C   0  0  0  0  0  0  0  0  0  0  0  0
   10.4972   -3.8968   24.1589 C   0  0  0  0  0  0  0  0  0  0  0  0
    5.9260   -8.2736   16.5517 C   0  0  0  0  0  0  0  0  0  0  0  0
    3.8816   -9.1166   17.2493 C   0  0  0  0  0  0  0  0  0  0  0  0
   10.1297   -1.6575   23.2324 C   0  0  0  0  0  0  0  0  0  0  0  0
    9.4684   -1.6929   26.7263 F   0  0  0  0  0  0  0  0  0  0  0  0
    7.7963   -7.7906   17.9837 C   0  0  0  0  0  0  0  0  0  0  0  0
   10.5884   -3.0725   16.7902 O   0  0  0  0  0  0  0  0  0  0  0  0
   10.4323   -5.3494   20.3516 C   0  0  0  0  0  0  0  0  0  0  0  0
    7.1156   -7.5454   16.8218 C   0  0  0  0  0  0  0  0  0  0  0  0
   10.3885   -4.4388   19.2773 C   0  0  0  0  0  0  0  0  0  0  0  0
    4.5160   -9.3822   15.0841 C   0  0  0  0  0  0  0  0  0  0  0  0
  1  3  4  0
  1 24  4  0
  2  6  4  0
  2 15  4  0
  3  5  4  0
  3  6  4  0
  4 21  4  0
  4 29  4  0
  5 15  4  0
  5 28  1  0
  6 16  4  0
  7 18  4  0
  7 26  4  0
  8 18  1  0
  8 19  4  0
  8 22  4  0
  9 12  4  0
  9 19  4  0
 10 12  4  0
 10 22  4  0
 11 20  4  0
 11 21  4  0
 12 23  1  0
 13 20  4  0
 13 29  4  0
 14 17  4  0
 14 28  4  0
 15 25  2  0
 16 27  4  0
 17 18  4  0
 20 27  1  0
 24 27  4  0
 26 28  4  0
M  END
$$$$

 Created by Python create_sdf_string function

 29 33  0  0  0  0  0  0  0  0999 V2000
    8.8270   -7.0288   18.4251 C   0  0  0  0  0  0  0  0  0  0  0  0
    9.1576   -4.6236   15.8860 O   0  0  0  0  0  0  0  0  0  0  0  0
    9.1509   -5.9108   17.7177 C   0  0  0  0  0  0  0  0  0  0  0  0
    3.6373   -9.5349   16.0582 N   0  0  0  0  0  0  0  0  0  0  0  0
    9.9275   -4.8001   18.0438 N   0  0  0  0  0  0  0  0  0  0  0  0
    8.5908   -5.7425   16.4412 C   0  0  0  0  0  0  0  0  0  0  0  0
   10.5993   -4.8981   21.6068 C   0  0  0  0  0  0  0  0  0  0  0  0
   10.4258   -3.0106   23.0998 C   0  0  0  0  0  0  0  0  0  0  0  0
   10.2148   -3.4364   25.4200 C   0  0  0  0  0  0  0  0  0  0  0  0
    9.7853   -1.1840   24.4927 C   0  0  0  0  0  0  0  0  0  0  0  0
    5.0276   -8.5227   17.5352 C   0  0  0  0  0  0  0  0  0  0  0  0
    9.8187   -2.0895   25.5800 C   0  0  0  0  0  0  0  0  0  0  0  0
    5.6473   -8.7216   15.3158 C   0  0  0  0  0  0  0  0  0  0  0  0
   10.7581   -3.1233   19.4720 N   0  0  0  0  0  0  0  0  0  0  0  0
    9.9571   -4.0573   16.8866 C   0  0  0  0  0  0  0  0  0  0  0  0
    7.6213   -6.5618   16.0087 C   0  0  0  0  0  0  0  0  0  0  0  0
   10.8583   -2.6527   20.7222 C   0  0  0  0  0  0  0  0  0  0  0  0
   10.6412   -3.5089   21.7936 C   0  0  0  0  0  0  0  0  0  0  0  0
   10.4972   -3.8968   24.1589 C   0  0  0  0  0  0  0  0  0  0  0  0
    5.9260   -8.2736   16.5517 C   0  0  0  0  0  0  0  0  0  0  0  0
    3.8816   -9.1166   17.2493 C   0  0  0  0  0  0  0  0  0  0  0  0
   10.1297   -1.6575   23.2324 C   0  0  0  0  0  0  0  0  0  0  0  0
    9.4684   -1.6929   26.7263 F   0  0  0  0  0  0  0  0  0  0  0  0
    7.7963   -7.7906   17.9837 C   0  0  0  0  0  0  0  0  0  0  0  0
   10.5884   -3.0725   16.7902 O   0  0  0  0  0  0  0  0  0  0  0  0
   10.4323   -5.3494   20.3516 C   0  0  0  0  0  0  0  0  0  0  0  0
    7.1156   -7.5454   16.8218 C   0  0  0  0  0  0  0  0  0  0  0  0
   10.3885   -4.4388   19.2773 C   0  0  0  0  0  0  0  0  0  0  0  0
    4.5160   -9.3822   15.0841 C   0  0  0  0  0  0  0  0  0  0  0  0
  1  3  4  0
  1 24  4  0
  2  6  4  0
  2 15  4  0
  3  5  4  0
  3  6  4  0
  4 21  4  0
  4 29  4  0
  5 15  4  0
  5 28  1  0
  6 16  4  0
  7 18  4  0
  7 26  4  0
  8 18  1  0
  8 19  4  0
  8 22  4  0
  9 12  4  0
  9 19  4  0
 10 12  4  0
 10 22  4  0
 11 20  4  0
 11 21  4  0
 12 23  1  0
 13 20  4  0
 13 29  4  0
 14 17  4  0
 14 28  4  0
 15 25  2  0
 16 27  4  0
 17 18  4  0
 20 27  1  0
 24 27  4  0
 26 28  4  0
M  END
$$$$

 Created by Python create_sdf_string function

 29 33  0  0  0  0  0  0  0  0999 V2000
    8.8270   -7.0288   18.4251 C   0  0  0  0  0  0  0  0  0  0  0  0
    9.1576   -4.6236   15.8860 O   0  0  0  0  0  0  0  0  0  0  0  0
    9.1509   -5.9108   17.7177 C   0  0  0  0  0  0  0  0  0  0  0  0
    3.6373   -9.5349   16.0582 N   0  0  0  0  0  0  0  0  0  0  0  0
    9.9275   -4.8001   18.0438 N   0  0  0  0  0  0  0  0  0  0  0  0
    8.5908   -5.7425   16.4412 C   0  0  0  0  0  0  0  0  0  0  0  0
   10.5993   -4.8981   21.6068 C   0  0  0  0  0  0  0  0  0  0  0  0
   10.4258   -3.0106   23.0998 C   0  0  0  0  0  0  0  0  0  0  0  0
   10.2148   -3.4364   25.4200 C   0  0  0  0  0  0  0  0  0  0  0  0
    9.7853   -1.1840   24.4927 C   0  0  0  0  0  0  0  0  0  0  0  0
    5.0276   -8.5227   17.5352 C   0  0  0  0  0  0  0  0  0  0  0  0
    9.8187   -2.0895   25.5800 C   0  0  0  0  0  0  0  0  0  0  0  0
    5.6473   -8.7216   15.3158 C   0  0  0  0  0  0  0  0  0  0  0  0
   10.7581   -3.1233   19.4720 N   0  0  0  0  0  0  0  0  0  0  0  0
    9.9571   -4.0573   16.8866 C   0  0  0  0  0  0  0  0  0  0  0  0
    7.6213   -6.5618   16.0087 C   0  0  0  0  0  0  0  0  0  0  0  0
   10.8583   -2.6527   20.7222 C   0  0  0  0  0  0  0  0  0  0  0  0
   10.6412   -3.5089   21.7936 C   0  0  0  0  0  0  0  0  0  0  0  0
   10.4972   -3.8968   24.1589 C   0  0  0  0  0  0  0  0  0  0  0  0
    5.9260   -8.2736   16.5517 C   0  0  0  0  0  0  0  0  0  0  0  0
    3.8816   -9.1166   17.2493 C   0  0  0  0  0  0  0  0  0  0  0  0
   10.1297   -1.6575   23.2324 C   0  0  0  0  0  0  0  0  0  0  0  0
    9.4684   -1.6929   26.7263 F   0  0  0  0  0  0  0  0  0  0  0  0
    7.7963   -7.7906   17.9837 C   0  0  0  0  0  0  0  0  0  0  0  0
   10.5884   -3.0725   16.7902 O   0  0  0  0  0  0  0  0  0  0  0  0
   10.4323   -5.3494   20.3516 C   0  0  0  0  0  0  0  0  0  0  0  0
    7.1156   -7.5454   16.8218 C   0  0  0  0  0  0  0  0  0  0  0  0
   10.3885   -4.4388   19.2773 C   0  0  0  0  0  0  0  0  0  0  0  0
    4.5160   -9.3822   15.0841 C   0  0  0  0  0  0  0  0  0  0  0  0
  1  3  4  0
  1 24  4  0
  2  6  4  0
  2 15  4  0
  3  5  4  0
  3  6  4  0
  4 21  4  0
  4 29  4  0
  5 15  4  0
  5 28  1  0
  6 16  4  0
  7 18  4  0
  7 26  4  0
  8 18  1  0
  8 19  4  0
  8 22  4  0
  9 12  4  0
  9 19  4  0
 10 12  4  0
 10 22  4  0
 11 20  4  0
 11 21  4  0
 12 23  1  0
 13 20  4  0
 13 29  4  0
 14 17  4  0
 14 28  4  0
 15 25  2  0
 16 27  4  0
 17 18  4  0
 20 27  1  0
 24 27  4  0
 26 28  4  0
M  END
$$$$

 Created by Python create_sdf_string function

 29 33  0  0  0  0  0  0  0  0999 V2000
    8.8270   -7.0288   18.4251 C   0  0  0  0  0  0  0  0  0  0  0  0
    9.1576   -4.6236   15.8860 O   0  0  0  0  0  0  0  0  0  0  0  0
    9.1509   -5.9108   17.7177 C   0  0  0  0  0  0  0  0  0  0  0  0
    3.6373   -9.5349   16.0582 N   0  0  0  0  0  0  0  0  0  0  0  0
    9.9275   -4.8001   18.0438 N   0  0  0  0  0  0  0  0  0  0  0  0
    8.5908   -5.7425   16.4412 C   0  0  0  0  0  0  0  0  0  0  0  0
   10.5993   -4.8981   21.6068 C   0  0  0  0  0  0  0  0  0  0  0  0
   10.4258   -3.0106   23.0998 C   0  0  0  0  0  0  0  0  0  0  0  0
   10.2148   -3.4364   25.4200 C   0  0  0  0  0  0  0  0  0  0  0  0
    9.7853   -1.1840   24.4927 C   0  0  0  0  0  0  0  0  0  0  0  0
    5.0276   -8.5227   17.5352 C   0  0  0  0  0  0  0  0  0  0  0  0
    9.8187   -2.0895   25.5800 C   0  0  0  0  0  0  0  0  0  0  0  0
    5.6473   -8.7216   15.3158 C   0  0  0  0  0  0  0  0  0  0  0  0
   10.7581   -3.1233   19.4720 N   0  0  0  0  0  0  0  0  0  0  0  0
    9.9571   -4.0573   16.8866 C   0  0  0  0  0  0  0  0  0  0  0  0
    7.6213   -6.5618   16.0087 C   0  0  0  0  0  0  0  0  0  0  0  0
   10.8583   -2.6527   20.7222 C   0  0  0  0  0  0  0  0  0  0  0  0
   10.6412   -3.5089   21.7936 C   0  0  0  0  0  0  0  0  0  0  0  0
   10.4972   -3.8968   24.1589 C   0  0  0  0  0  0  0  0  0  0  0  0
    5.9260   -8.2736   16.5517 C   0  0  0  0  0  0  0  0  0  0  0  0
    3.8816   -9.1166   17.2493 C   0  0  0  0  0  0  0  0  0  0  0  0
   10.1297   -1.6575   23.2324 C   0  0  0  0  0  0  0  0  0  0  0  0
    9.4684   -1.6929   26.7263 F   0  0  0  0  0  0  0  0  0  0  0  0
    7.7963   -7.7906   17.9837 C   0  0  0  0  0  0  0  0  0  0  0  0
   10.5884   -3.0725   16.7902 O   0  0  0  0  0  0  0  0  0  0  0  0
   10.4323   -5.3494   20.3516 C   0  0  0  0  0  0  0  0  0  0  0  0
    7.1156   -7.5454   16.8218 C   0  0  0  0  0  0  0  0  0  0  0  0
   10.3885   -4.4388   19.2773 C   0  0  0  0  0  0  0  0  0  0  0  0
    4.5160   -9.3822   15.0841 C   0  0  0  0  0  0  0  0  0  0  0  0
  1  3  4  0
  1 24  4  0
  2  6  4  0
  2 15  4  0
  3  5  4  0
  3  6  4  0
  4 21  4  0
  4 29  4  0
  5 15  4  0
  5 28  1  0
  6 16  4  0
  7 18  4  0
  7 26  4  0
  8 18  1  0
  8 19  4  0
  8 22  4  0
  9 12  4  0
  9 19  4  0
 10 12  4  0
 10 22  4  0
 11 20  4  0
 11 21  4  0
 12 23  1  0
 13 20  4  0
 13 29  4  0
 14 17  4  0
 14 28  4  0
 15 25  2  0
 16 27  4  0
 17 18  4  0
 20 27  1  0
 24 27  4  0
 26 28  4  0
M  END
$$$$

 Created by Python create_sdf_string function

 29 33  0  0  0  0  0  0  0  0999 V2000
    8.8270   -7.0288   18.4251 C   0  0  0  0  0  0  0  0  0  0  0  0
    9.1576   -4.6236   15.8860 O   0  0  0  0  0  0  0  0  0  0  0  0
    9.1509   -5.9108   17.7177 C   0  0  0  0  0  0  0  0  0  0  0  0
    3.6373   -9.5349   16.0582 N   0  0  0  0  0  0  0  0  0  0  0  0
    9.9275   -4.8001   18.0438 N   0  0  0  0  0  0  0  0  0  0  0  0
    8.5908   -5.7425   16.4412 C   0  0  0  0  0  0  0  0  0  0  0  0
   10.5993   -4.8981   21.6068 C   0  0  0  0  0  0  0  0  0  0  0  0
   10.4258   -3.0106   23.0998 C   0  0  0  0  0  0  0  0  0  0  0  0
   10.2148   -3.4364   25.4200 C   0  0  0  0  0  0  0  0  0  0  0  0
    9.7853   -1.1840   24.4927 C   0  0  0  0  0  0  0  0  0  0  0  0
    5.0276   -8.5227   17.5352 C   0  0  0  0  0  0  0  0  0  0  0  0
    9.8187   -2.0895   25.5800 C   0  0  0  0  0  0  0  0  0  0  0  0
    5.6473   -8.7216   15.3158 C   0  0  0  0  0  0  0  0  0  0  0  0
   10.7581   -3.1233   19.4720 N   0  0  0  0  0  0  0  0  0  0  0  0
    9.9571   -4.0573   16.8866 C   0  0  0  0  0  0  0  0  0  0  0  0
    7.6213   -6.5618   16.0087 C   0  0  0  0  0  0  0  0  0  0  0  0
   10.8583   -2.6527   20.7222 C   0  0  0  0  0  0  0  0  0  0  0  0
   10.6412   -3.5089   21.7936 C   0  0  0  0  0  0  0  0  0  0  0  0
   10.4972   -3.8968   24.1589 C   0  0  0  0  0  0  0  0  0  0  0  0
    5.9260   -8.2736   16.5517 C   0  0  0  0  0  0  0  0  0  0  0  0
    3.8816   -9.1166   17.2493 C   0  0  0  0  0  0  0  0  0  0  0  0
   10.1297   -1.6575   23.2324 C   0  0  0  0  0  0  0  0  0  0  0  0
    9.4684   -1.6929   26.7263 F   0  0  0  0  0  0  0  0  0  0  0  0
    7.7963   -7.7906   17.9837 C   0  0  0  0  0  0  0  0  0  0  0  0
   10.5884   -3.0725   16.7902 O   0  0  0  0  0  0  0  0  0  0  0  0
   10.4323   -5.3494   20.3516 C   0  0  0  0  0  0  0  0  0  0  0  0
    7.1156   -7.5454   16.8218 C   0  0  0  0  0  0  0  0  0  0  0  0
   10.3885   -4.4388   19.2773 C   0  0  0  0  0  0  0  0  0  0  0  0
    4.5160   -9.3822   15.0841 C   0  0  0  0  0  0  0  0  0  0  0  0
  1  3  4  0
  1 24  4  0
  2  6  4  0
  2 15  4  0
  3  5  4  0
  3  6  4  0
  4 21  4  0
  4 29  4  0
  5 15  4  0
  5 28  1  0
  6 16  4  0
  7 18  4  0
  7 26  4  0
  8 18  1  0
  8 19  4  0
  8 22  4  0
  9 12  4  0
  9 19  4  0
 10 12  4  0
 10 22  4  0
 11 20  4  0
 11 21  4  0
 12 23  1  0
 13 20  4  0
 13 29  4  0
 14 17  4  0
 14 28  4  0
 15 25  2  0
 16 27  4  0
 17 18  4  0
 20 27  1  0
 24 27  4  0
 26 28  4  0
M  END
$$$$

 Created by Python create_sdf_string function

 29 33  0  0  0  0  0  0  0  0999 V2000
    8.8270   -7.0288   18.4251 C   0  0  0  0  0  0  0  0  0  0  0  0
    9.1576   -4.6236   15.8860 O   0  0  0  0  0  0  0  0  0  0  0  0
    9.1509   -5.9108   17.7177 C   0  0  0  0  0  0  0  0  0  0  0  0
    3.6373   -9.5349   16.0582 N   0  0  0  0  0  0  0  0  0  0  0  0
    9.9275   -4.8001   18.0438 N   0  0  0  0  0  0  0  0  0  0  0  0
    8.5908   -5.7425   16.4412 C   0  0  0  0  0  0  0  0  0  0  0  0
   10.5993   -4.8981   21.6068 C   0  0  0  0  0  0  0  0  0  0  0  0
   10.4258   -3.0106   23.0998 C   0  0  0  0  0  0  0  0  0  0  0  0
   10.2148   -3.4364   25.4200 C   0  0  0  0  0  0  0  0  0  0  0  0
    9.7853   -1.1840   24.4927 C   0  0  0  0  0  0  0  0  0  0  0  0
    5.0276   -8.5227   17.5352 C   0  0  0  0  0  0  0  0  0  0  0  0
    9.8187   -2.0895   25.5800 C   0  0  0  0  0  0  0  0  0  0  0  0
    5.6473   -8.7216   15.3158 C   0  0  0  0  0  0  0  0  0  0  0  0
   10.7581   -3.1233   19.4720 N   0  0  0  0  0  0  0  0  0  0  0  0
    9.9571   -4.0573   16.8866 C   0  0  0  0  0  0  0  0  0  0  0  0
    7.6213   -6.5618   16.0087 C   0  0  0  0  0  0  0  0  0  0  0  0
   10.8583   -2.6527   20.7222 C   0  0  0  0  0  0  0  0  0  0  0  0
   10.6412   -3.5089   21.7936 C   0  0  0  0  0  0  0  0  0  0  0  0
   10.4972   -3.8968   24.1589 C   0  0  0  0  0  0  0  0  0  0  0  0
    5.9260   -8.2736   16.5517 C   0  0  0  0  0  0  0  0  0  0  0  0
    3.8816   -9.1166   17.2493 C   0  0  0  0  0  0  0  0  0  0  0  0
   10.1297   -1.6575   23.2324 C   0  0  0  0  0  0  0  0  0  0  0  0
    9.4684   -1.6929   26.7263 F   0  0  0  0  0  0  0  0  0  0  0  0
    7.7963   -7.7906   17.9837 C   0  0  0  0  0  0  0  0  0  0  0  0
   10.5884   -3.0725   16.7902 O   0  0  0  0  0  0  0  0  0  0  0  0
   10.4323   -5.3494   20.3516 C   0  0  0  0  0  0  0  0  0  0  0  0
    7.1156   -7.5454   16.8218 C   0  0  0  0  0  0  0  0  0  0  0  0
   10.3885   -4.4388   19.2773 C   0  0  0  0  0  0  0  0  0  0  0  0
    4.5160   -9.3822   15.0841 C   0  0  0  0  0  0  0  0  0  0  0  0
  1  3  4  0
  1 24  4  0
  2  6  4  0
  2 15  4  0
  3  5  4  0
  3  6  4  0
  4 21  4  0
  4 29  4  0
  5 15  4  0
  5 28  1  0
  6 16  4  0
  7 18  4  0
  7 26  4  0
  8 18  1  0
  8 19  4  0
  8 22  4  0
  9 12  4  0
  9 19  4  0
 10 12  4  0
 10 22  4  0
 11 20  4  0
 11 21  4  0
 12 23  1  0
 13 20  4  0
 13 29  4  0
 14 17  4  0
 14 28  4  0
 15 25  2  0
 16 27  4  0
 17 18  4  0
 20 27  1  0
 24 27  4  0
 26 28  4  0
M  END
$$$$

 Created by Python create_sdf_string function

 29 33  0  0  0  0  0  0  0  0999 V2000
    8.8270   -7.0288   18.4251 C   0  0  0  0  0  0  0  0  0  0  0  0
    9.1576   -4.6236   15.8860 O   0  0  0  0  0  0  0  0  0  0  0  0
    9.1509   -5.9108   17.7177 C   0  0  0  0  0  0  0  0  0  0  0  0
    3.6373   -9.5349   16.0582 N   0  0  0  0  0  0  0  0  0  0  0  0
    9.9275   -4.8001   18.0438 N   0  0  0  0  0  0  0  0  0  0  0  0
    8.5908   -5.7425   16.4412 C   0  0  0  0  0  0  0  0  0  0  0  0
   10.5993   -4.8981   21.6068 C   0  0  0  0  0  0  0  0  0  0  0  0
   10.4258   -3.0106   23.0998 C   0  0  0  0  0  0  0  0  0  0  0  0
   10.2148   -3.4364   25.4200 C   0  0  0  0  0  0  0  0  0  0  0  0
    9.7853   -1.1840   24.4927 C   0  0  0  0  0  0  0  0  0  0  0  0
    5.0276   -8.5227   17.5352 C   0  0  0  0  0  0  0  0  0  0  0  0
    9.8187   -2.0895   25.5800 C   0  0  0  0  0  0  0  0  0  0  0  0
    5.6473   -8.7216   15.3158 C   0  0  0  0  0  0  0  0  0  0  0  0
   10.7581   -3.1233   19.4720 N   0  0  0  0  0  0  0  0  0  0  0  0
    9.9571   -4.0573   16.8866 C   0  0  0  0  0  0  0  0  0  0  0  0
    7.6213   -6.5618   16.0087 C   0  0  0  0  0  0  0  0  0  0  0  0
   10.8583   -2.6527   20.7222 C   0  0  0  0  0  0  0  0  0  0  0  0
   10.6412   -3.5089   21.7936 C   0  0  0  0  0  0  0  0  0  0  0  0
   10.4972   -3.8968   24.1589 C   0  0  0  0  0  0  0  0  0  0  0  0
    5.9260   -8.2736   16.5517 C   0  0  0  0  0  0  0  0  0  0  0  0
    3.8816   -9.1166   17.2493 C   0  0  0  0  0  0  0  0  0  0  0  0
   10.1297   -1.6575   23.2324 C   0  0  0  0  0  0  0  0  0  0  0  0
    9.4684   -1.6929   26.7263 F   0  0  0  0  0  0  0  0  0  0  0  0
    7.7963   -7.7906   17.9837 C   0  0  0  0  0  0  0  0  0  0  0  0
   10.5884   -3.0725   16.7902 O   0  0  0  0  0  0  0  0  0  0  0  0
   10.4323   -5.3494   20.3516 C   0  0  0  0  0  0  0  0  0  0  0  0
    7.1156   -7.5454   16.8218 C   0  0  0  0  0  0  0  0  0  0  0  0
   10.3885   -4.4388   19.2773 C   0  0  0  0  0  0  0  0  0  0  0  0
    4.5160   -9.3822   15.0841 C   0  0  0  0  0  0  0  0  0  0  0  0
  1  3  4  0
  1 24  4  0
  2  6  4  0
  2 15  4  0
  3  5  4  0
  3  6  4  0
  4 21  4  0
  4 29  4  0
  5 15  4  0
  5 28  1  0
  6 16  4  0
  7 18  4  0
  7 26  4  0
  8 18  1  0
  8 19  4  0
  8 22  4  0
  9 12  4  0
  9 19  4  0
 10 12  4  0
 10 22  4  0
 11 20  4  0
 11 21  4  0
 12 23  1  0
 13 20  4  0
 13 29  4  0
 14 17  4  0
 14 28  4  0
 15 25  2  0
 16 27  4  0
 17 18  4  0
 20 27  1  0
 24 27  4  0
 26 28  4  0
M  END
$$$$

 Created by Python create_sdf_string function

 29 33  0  0  0  0  0  0  0  0999 V2000
    8.8270   -7.0288   18.4251 C   0  0  0  0  0  0  0  0  0  0  0  0
    9.1576   -4.6236   15.8860 O   0  0  0  0  0  0  0  0  0  0  0  0
    9.1509   -5.9108   17.7177 C   0  0  0  0  0  0  0  0  0  0  0  0
    3.6373   -9.5349   16.0582 N   0  0  0  0  0  0  0  0  0  0  0  0
    9.9275   -4.8001   18.0438 N   0  0  0  0  0  0  0  0  0  0  0  0
    8.5908   -5.7425   16.4412 C   0  0  0  0  0  0  0  0  0  0  0  0
   10.5993   -4.8981   21.6068 C   0  0  0  0  0  0  0  0  0  0  0  0
   10.4258   -3.0106   23.0998 C   0  0  0  0  0  0  0  0  0  0  0  0
   10.2148   -3.4364   25.4200 C   0  0  0  0  0  0  0  0  0  0  0  0
    9.7853   -1.1840   24.4927 C   0  0  0  0  0  0  0  0  0  0  0  0
    5.0276   -8.5227   17.5352 C   0  0  0  0  0  0  0  0  0  0  0  0
    9.8187   -2.0895   25.5800 C   0  0  0  0  0  0  0  0  0  0  0  0
    5.6473   -8.7216   15.3158 C   0  0  0  0  0  0  0  0  0  0  0  0
   10.7581   -3.1233   19.4720 N   0  0  0  0  0  0  0  0  0  0  0  0
    9.9571   -4.0573   16.8866 C   0  0  0  0  0  0  0  0  0  0  0  0
    7.6213   -6.5618   16.0087 C   0  0  0  0  0  0  0  0  0  0  0  0
   10.8583   -2.6527   20.7222 C   0  0  0  0  0  0  0  0  0  0  0  0
   10.6412   -3.5089   21.7936 C   0  0  0  0  0  0  0  0  0  0  0  0
   10.4972   -3.8968   24.1589 C   0  0  0  0  0  0  0  0  0  0  0  0
    5.9260   -8.2736   16.5517 C   0  0  0  0  0  0  0  0  0  0  0  0
    3.8816   -9.1166   17.2493 C   0  0  0  0  0  0  0  0  0  0  0  0
   10.1297   -1.6575   23.2324 C   0  0  0  0  0  0  0  0  0  0  0  0
    9.4684   -1.6929   26.7263 F   0  0  0  0  0  0  0  0  0  0  0  0
    7.7963   -7.7906   17.9837 C   0  0  0  0  0  0  0  0  0  0  0  0
   10.5884   -3.0725   16.7902 O   0  0  0  0  0  0  0  0  0  0  0  0
   10.4323   -5.3494   20.3516 C   0  0  0  0  0  0  0  0  0  0  0  0
    7.1156   -7.5454   16.8218 C   0  0  0  0  0  0  0  0  0  0  0  0
   10.3885   -4.4388   19.2773 C   0  0  0  0  0  0  0  0  0  0  0  0
    4.5160   -9.3822   15.0841 C   0  0  0  0  0  0  0  0  0  0  0  0
  1  3  4  0
  1 24  4  0
  2  6  4  0
  2 15  4  0
  3  5  4  0
  3  6  4  0
  4 21  4  0
  4 29  4  0
  5 15  4  0
  5 28  1  0
  6 16  4  0
  7 18  4  0
  7 26  4  0
  8 18  1  0
  8 19  4  0
  8 22  4  0
  9 12  4  0
  9 19  4  0
 10 12  4  0
 10 22  4  0
 11 20  4  0
 11 21  4  0
 12 23  1  0
 13 20  4  0
 13 29  4  0
 14 17  4  0
 14 28  4  0
 15 25  2  0
 16 27  4  0
 17 18  4  0
 20 27  1  0
 24 27  4  0
 26 28  4  0
M  END
$$$$

 Created by Python create_sdf_string function

 29 33  0  0  0  0  0  0  0  0999 V2000
    8.8270   -7.0288   18.4251 C   0  0  0  0  0  0  0  0  0  0  0  0
    9.1576   -4.6236   15.8860 O   0  0  0  0  0  0  0  0  0  0  0  0
    9.1509   -5.9108   17.7177 C   0  0  0  0  0  0  0  0  0  0  0  0
    3.6373   -9.5349   16.0582 N   0  0  0  0  0  0  0  0  0  0  0  0
    9.9275   -4.8001   18.0438 N   0  0  0  0  0  0  0  0  0  0  0  0
    8.5908   -5.7425   16.4412 C   0  0  0  0  0  0  0  0  0  0  0  0
   10.5993   -4.8981   21.6068 C   0  0  0  0  0  0  0  0  0  0  0  0
   10.4258   -3.0106   23.0998 C   0  0  0  0  0  0  0  0  0  0  0  0
   10.2148   -3.4364   25.4200 C   0  0  0  0  0  0  0  0  0  0  0  0
    9.7853   -1.1840   24.4927 C   0  0  0  0  0  0  0  0  0  0  0  0
    5.0276   -8.5227   17.5352 C   0  0  0  0  0  0  0  0  0  0  0  0
    9.8187   -2.0895   25.5800 C   0  0  0  0  0  0  0  0  0  0  0  0
    5.6473   -8.7216   15.3158 C   0  0  0  0  0  0  0  0  0  0  0  0
   10.7581   -3.1233   19.4720 N   0  0  0  0  0  0  0  0  0  0  0  0
    9.9571   -4.0573   16.8866 C   0  0  0  0  0  0  0  0  0  0  0  0
    7.6213   -6.5618   16.0087 C   0  0  0  0  0  0  0  0  0  0  0  0
   10.8583   -2.6527   20.7222 C   0  0  0  0  0  0  0  0  0  0  0  0
   10.6412   -3.5089   21.7936 C   0  0  0  0  0  0  0  0  0  0  0  0
   10.4972   -3.8968   24.1589 C   0  0  0  0  0  0  0  0  0  0  0  0
    5.9260   -8.2736   16.5517 C   0  0  0  0  0  0  0  0  0  0  0  0
    3.8816   -9.1166   17.2493 C   0  0  0  0  0  0  0  0  0  0  0  0
   10.1297   -1.6575   23.2324 C   0  0  0  0  0  0  0  0  0  0  0  0
    9.4684   -1.6929   26.7263 F   0  0  0  0  0  0  0  0  0  0  0  0
    7.7963   -7.7906   17.9837 C   0  0  0  0  0  0  0  0  0  0  0  0
   10.5884   -3.0725   16.7902 O   0  0  0  0  0  0  0  0  0  0  0  0
   10.4323   -5.3494   20.3516 C   0  0  0  0  0  0  0  0  0  0  0  0
    7.1156   -7.5454   16.8218 C   0  0  0  0  0  0  0  0  0  0  0  0
   10.3885   -4.4388   19.2773 C   0  0  0  0  0  0  0  0  0  0  0  0
    4.5160   -9.3822   15.0841 C   0  0  0  0  0  0  0  0  0  0  0  0
  1  3  4  0
  1 24  4  0
  2  6  4  0
  2 15  4  0
  3  5  4  0
  3  6  4  0
  4 21  4  0
  4 29  4  0
  5 15  4  0
  5 28  1  0
  6 16  4  0
  7 18  4  0
  7 26  4  0
  8 18  1  0
  8 19  4  0
  8 22  4  0
  9 12  4  0
  9 19  4  0
 10 12  4  0
 10 22  4  0
 11 20  4  0
 11 21  4  0
 12 23  1  0
 13 20  4  0
 13 29  4  0
 14 17  4  0
 14 28  4  0
 15 25  2  0
 16 27  4  0
 17 18  4  0
 20 27  1  0
 24 27  4  0
 26 28  4  0
M  END
$$$$

 Created by Python create_sdf_string function

 29 33  0  0  0  0  0  0  0  0999 V2000
    8.8270   -7.0288   18.4251 C   0  0  0  0  0  0  0  0  0  0  0  0
    9.1576   -4.6236   15.8860 O   0  0  0  0  0  0  0  0  0  0  0  0
    9.1509   -5.9108   17.7177 C   0  0  0  0  0  0  0  0  0  0  0  0
    3.6373   -9.5349   16.0582 N   0  0  0  0  0  0  0  0  0  0  0  0
    9.9275   -4.8001   18.0438 N   0  0  0  0  0  0  0  0  0  0  0  0
    8.5908   -5.7425   16.4412 C   0  0  0  0  0  0  0  0  0  0  0  0
   10.5993   -4.8981   21.6068 C   0  0  0  0  0  0  0  0  0  0  0  0
   10.4258   -3.0106   23.0998 C   0  0  0  0  0  0  0  0  0  0  0  0
   10.2148   -3.4364   25.4200 C   0  0  0  0  0  0  0  0  0  0  0  0
    9.7853   -1.1840   24.4927 C   0  0  0  0  0  0  0  0  0  0  0  0
    5.0276   -8.5227   17.5352 C   0  0  0  0  0  0  0  0  0  0  0  0
    9.8187   -2.0895   25.5800 C   0  0  0  0  0  0  0  0  0  0  0  0
    5.6473   -8.7216   15.3158 C   0  0  0  0  0  0  0  0  0  0  0  0
   10.7581   -3.1233   19.4720 N   0  0  0  0  0  0  0  0  0  0  0  0
    9.9571   -4.0573   16.8866 C   0  0  0  0  0  0  0  0  0  0  0  0
    7.6213   -6.5618   16.0087 C   0  0  0  0  0  0  0  0  0  0  0  0
   10.8583   -2.6527   20.7222 C   0  0  0  0  0  0  0  0  0  0  0  0
   10.6412   -3.5089   21.7936 C   0  0  0  0  0  0  0  0  0  0  0  0
   10.4972   -3.8968   24.1589 C   0  0  0  0  0  0  0  0  0  0  0  0
    5.9260   -8.2736   16.5517 C   0  0  0  0  0  0  0  0  0  0  0  0
    3.8816   -9.1166   17.2493 C   0  0  0  0  0  0  0  0  0  0  0  0
   10.1297   -1.6575   23.2324 C   0  0  0  0  0  0  0  0  0  0  0  0
    9.4684   -1.6929   26.7263 F   0  0  0  0  0  0  0  0  0  0  0  0
    7.7963   -7.7906   17.9837 C   0  0  0  0  0  0  0  0  0  0  0  0
   10.5884   -3.0725   16.7902 O   0  0  0  0  0  0  0  0  0  0  0  0
   10.4323   -5.3494   20.3516 C   0  0  0  0  0  0  0  0  0  0  0  0
    7.1156   -7.5454   16.8218 C   0  0  0  0  0  0  0  0  0  0  0  0
   10.3885   -4.4388   19.2773 C   0  0  0  0  0  0  0  0  0  0  0  0
    4.5160   -9.3822   15.0841 C   0  0  0  0  0  0  0  0  0  0  0  0
  1  3  4  0
  1 24  4  0
  2  6  4  0
  2 15  4  0
  3  5  4  0
  3  6  4  0
  4 21  4  0
  4 29  4  0
  5 15  4  0
  5 28  1  0
  6 16  4  0
  7 18  4  0
  7 26  4  0
  8 18  1  0
  8 19  4  0
  8 22  4  0
  9 12  4  0
  9 19  4  0
 10 12  4  0
 10 22  4  0
 11 20  4  0
 11 21  4  0
 12 23  1  0
 13 20  4  0
 13 29  4  0
 14 17  4  0
 14 28  4  0
 15 25  2  0
 16 27  4  0
 17 18  4  0
 20 27  1  0
 24 27  4  0
 26 28  4  0
M  END
$$$$

 Created by Python create_sdf_string function

 29 33  0  0  0  0  0  0  0  0999 V2000
    8.8270   -7.0288   18.4251 C   0  0  0  0  0  0  0  0  0  0  0  0
    9.1576   -4.6236   15.8860 O   0  0  0  0  0  0  0  0  0  0  0  0
    9.1509   -5.9108   17.7177 C   0  0  0  0  0  0  0  0  0  0  0  0
    3.6373   -9.5349   16.0582 N   0  0  0  0  0  0  0  0  0  0  0  0
    9.9275   -4.8001   18.0438 N   0  0  0  0  0  0  0  0  0  0  0  0
    8.5908   -5.7425   16.4412 C   0  0  0  0  0  0  0  0  0  0  0  0
   10.5993   -4.8981   21.6068 C   0  0  0  0  0  0  0  0  0  0  0  0
   10.4258   -3.0106   23.0998 C   0  0  0  0  0  0  0  0  0  0  0  0
   10.2148   -3.4364   25.4200 C   0  0  0  0  0  0  0  0  0  0  0  0
    9.7853   -1.1840   24.4927 C   0  0  0  0  0  0  0  0  0  0  0  0
    5.0276   -8.5227   17.5352 C   0  0  0  0  0  0  0  0  0  0  0  0
    9.8187   -2.0895   25.5800 C   0  0  0  0  0  0  0  0  0  0  0  0
    5.6473   -8.7216   15.3158 C   0  0  0  0  0  0  0  0  0  0  0  0
   10.7581   -3.1233   19.4720 N   0  0  0  0  0  0  0  0  0  0  0  0
    9.9571   -4.0573   16.8866 C   0  0  0  0  0  0  0  0  0  0  0  0
    7.6213   -6.5618   16.0087 C   0  0  0  0  0  0  0  0  0  0  0  0
   10.8583   -2.6527   20.7222 C   0  0  0  0  0  0  0  0  0  0  0  0
   10.6412   -3.5089   21.7936 C   0  0  0  0  0  0  0  0  0  0  0  0
   10.4972   -3.8968   24.1589 C   0  0  0  0  0  0  0  0  0  0  0  0
    5.9260   -8.2736   16.5517 C   0  0  0  0  0  0  0  0  0  0  0  0
    3.8816   -9.1166   17.2493 C   0  0  0  0  0  0  0  0  0  0  0  0
   10.1297   -1.6575   23.2324 C   0  0  0  0  0  0  0  0  0  0  0  0
    9.4684   -1.6929   26.7263 F   0  0  0  0  0  0  0  0  0  0  0  0
    7.7963   -7.7906   17.9837 C   0  0  0  0  0  0  0  0  0  0  0  0
   10.5884   -3.0725   16.7902 O   0  0  0  0  0  0  0  0  0  0  0  0
   10.4323   -5.3494   20.3516 C   0  0  0  0  0  0  0  0  0  0  0  0
    7.1156   -7.5454   16.8218 C   0  0  0  0  0  0  0  0  0  0  0  0
   10.3885   -4.4388   19.2773 C   0  0  0  0  0  0  0  0  0  0  0  0
    4.5160   -9.3822   15.0841 C   0  0  0  0  0  0  0  0  0  0  0  0
  1  3  4  0
  1 24  4  0
  2  6  4  0
  2 15  4  0
  3  5  4  0
  3  6  4  0
  4 21  4  0
  4 29  4  0
  5 15  4  0
  5 28  1  0
  6 16  4  0
  7 18  4  0
  7 26  4  0
  8 18  1  0
  8 19  4  0
  8 22  4  0
  9 12  4  0
  9 19  4  0
 10 12  4  0
 10 22  4  0
 11 20  4  0
 11 21  4  0
 12 23  1  0
 13 20  4  0
 13 29  4  0
 14 17  4  0
 14 28  4  0
 15 25  2  0
 16 27  4  0
 17 18  4  0
 20 27  1  0
 24 27  4  0
 26 28  4  0
M  END
$$$$

 Created by Python create_sdf_string function

 29 33  0  0  0  0  0  0  0  0999 V2000
    8.8270   -7.0288   18.4251 C   0  0  0  0  0  0  0  0  0  0  0  0
    9.1576   -4.6236   15.8860 O   0  0  0  0  0  0  0  0  0  0  0  0
    9.1509   -5.9108   17.7177 C   0  0  0  0  0  0  0  0  0  0  0  0
    3.6373   -9.5349   16.0582 N   0  0  0  0  0  0  0  0  0  0  0  0
    9.9275   -4.8001   18.0438 N   0  0  0  0  0  0  0  0  0  0  0  0
    8.5908   -5.7425   16.4412 C   0  0  0  0  0  0  0  0  0  0  0  0
   10.5993   -4.8981   21.6068 C   0  0  0  0  0  0  0  0  0  0  0  0
   10.4258   -3.0106   23.0998 C   0  0  0  0  0  0  0  0  0  0  0  0
   10.2148   -3.4364   25.4200 C   0  0  0  0  0  0  0  0  0  0  0  0
    9.7853   -1.1840   24.4927 C   0  0  0  0  0  0  0  0  0  0  0  0
    5.0276   -8.5227   17.5352 C   0  0  0  0  0  0  0  0  0  0  0  0
    9.8187   -2.0895   25.5800 C   0  0  0  0  0  0  0  0  0  0  0  0
    5.6473   -8.7216   15.3158 C   0  0  0  0  0  0  0  0  0  0  0  0
   10.7581   -3.1233   19.4720 N   0  0  0  0  0  0  0  0  0  0  0  0
    9.9571   -4.0573   16.8866 C   0  0  0  0  0  0  0  0  0  0  0  0
    7.6213   -6.5618   16.0087 C   0  0  0  0  0  0  0  0  0  0  0  0
   10.8583   -2.6527   20.7222 C   0  0  0  0  0  0  0  0  0  0  0  0
   10.6412   -3.5089   21.7936 C   0  0  0  0  0  0  0  0  0  0  0  0
   10.4972   -3.8968   24.1589 C   0  0  0  0  0  0  0  0  0  0  0  0
    5.9260   -8.2736   16.5517 C   0  0  0  0  0  0  0  0  0  0  0  0
    3.8816   -9.1166   17.2493 C   0  0  0  0  0  0  0  0  0  0  0  0
   10.1297   -1.6575   23.2324 C   0  0  0  0  0  0  0  0  0  0  0  0
    9.4684   -1.6929   26.7263 F   0  0  0  0  0  0  0  0  0  0  0  0
    7.7963   -7.7906   17.9837 C   0  0  0  0  0  0  0  0  0  0  0  0
   10.5884   -3.0725   16.7902 O   0  0  0  0  0  0  0  0  0  0  0  0
   10.4323   -5.3494   20.3516 C   0  0  0  0  0  0  0  0  0  0  0  0
    7.1156   -7.5454   16.8218 C   0  0  0  0  0  0  0  0  0  0  0  0
   10.3885   -4.4388   19.2773 C   0  0  0  0  0  0  0  0  0  0  0  0
    4.5160   -9.3822   15.0841 C   0  0  0  0  0  0  0  0  0  0  0  0
  1  3  4  0
  1 24  4  0
  2  6  4  0
  2 15  4  0
  3  5  4  0
  3  6  4  0
  4 21  4  0
  4 29  4  0
  5 15  4  0
  5 28  1  0
  6 16  4  0
  7 18  4  0
  7 26  4  0
  8 18  1  0
  8 19  4  0
  8 22  4  0
  9 12  4  0
  9 19  4  0
 10 12  4  0
 10 22  4  0
 11 20  4  0
 11 21  4  0
 12 23  1  0
 13 20  4  0
 13 29  4  0
 14 17  4  0
 14 28  4  0
 15 25  2  0
 16 27  4  0
 17 18  4  0
 20 27  1  0
 24 27  4  0
 26 28  4  0
M  END
$$$$

 Created by Python create_sdf_string function

 29 33  0  0  0  0  0  0  0  0999 V2000
    8.8270   -7.0288   18.4251 C   0  0  0  0  0  0  0  0  0  0  0  0
    9.1576   -4.6236   15.8860 O   0  0  0  0  0  0  0  0  0  0  0  0
    9.1509   -5.9108   17.7177 C   0  0  0  0  0  0  0  0  0  0  0  0
    3.6373   -9.5349   16.0582 N   0  0  0  0  0  0  0  0  0  0  0  0
    9.9275   -4.8001   18.0438 N   0  0  0  0  0  0  0  0  0  0  0  0
    8.5908   -5.7425   16.4412 C   0  0  0  0  0  0  0  0  0  0  0  0
   10.5993   -4.8981   21.6068 C   0  0  0  0  0  0  0  0  0  0  0  0
   10.4258   -3.0106   23.0998 C   0  0  0  0  0  0  0  0  0  0  0  0
   10.2148   -3.4364   25.4200 C   0  0  0  0  0  0  0  0  0  0  0  0
    9.7853   -1.1840   24.4927 C   0  0  0  0  0  0  0  0  0  0  0  0
    5.0276   -8.5227   17.5352 C   0  0  0  0  0  0  0  0  0  0  0  0
    9.8187   -2.0895   25.5800 C   0  0  0  0  0  0  0  0  0  0  0  0
    5.6473   -8.7216   15.3158 C   0  0  0  0  0  0  0  0  0  0  0  0
   10.7581   -3.1233   19.4720 N   0  0  0  0  0  0  0  0  0  0  0  0
    9.9571   -4.0573   16.8866 C   0  0  0  0  0  0  0  0  0  0  0  0
    7.6213   -6.5618   16.0087 C   0  0  0  0  0  0  0  0  0  0  0  0
   10.8583   -2.6527   20.7222 C   0  0  0  0  0  0  0  0  0  0  0  0
   10.6412   -3.5089   21.7936 C   0  0  0  0  0  0  0  0  0  0  0  0
   10.4972   -3.8968   24.1589 C   0  0  0  0  0  0  0  0  0  0  0  0
    5.9260   -8.2736   16.5517 C   0  0  0  0  0  0  0  0  0  0  0  0
    3.8816   -9.1166   17.2493 C   0  0  0  0  0  0  0  0  0  0  0  0
   10.1297   -1.6575   23.2324 C   0  0  0  0  0  0  0  0  0  0  0  0
    9.4684   -1.6929   26.7263 F   0  0  0  0  0  0  0  0  0  0  0  0
    7.7963   -7.7906   17.9837 C   0  0  0  0  0  0  0  0  0  0  0  0
   10.5884   -3.0725   16.7902 O   0  0  0  0  0  0  0  0  0  0  0  0
   10.4323   -5.3494   20.3516 C   0  0  0  0  0  0  0  0  0  0  0  0
    7.1156   -7.5454   16.8218 C   0  0  0  0  0  0  0  0  0  0  0  0
   10.3885   -4.4388   19.2773 C   0  0  0  0  0  0  0  0  0  0  0  0
    4.5160   -9.3822   15.0841 C   0  0  0  0  0  0  0  0  0  0  0  0
  1  3  4  0
  1 24  4  0
  2  6  4  0
  2 15  4  0
  3  5  4  0
  3  6  4  0
  4 21  4  0
  4 29  4  0
  5 15  4  0
  5 28  1  0
  6 16  4  0
  7 18  4  0
  7 26  4  0
  8 18  1  0
  8 19  4  0
  8 22  4  0
  9 12  4  0
  9 19  4  0
 10 12  4  0
 10 22  4  0
 11 20  4  0
 11 21  4  0
 12 23  1  0
 13 20  4  0
 13 29  4  0
 14 17  4  0
 14 28  4  0
 15 25  2  0
 16 27  4  0
 17 18  4  0
 20 27  1  0
 24 27  4  0
 26 28  4  0
M  END
$$$$

 Created by Python create_sdf_string function

 29 33  0  0  0  0  0  0  0  0999 V2000
    8.8270   -7.0288   18.4251 C   0  0  0  0  0  0  0  0  0  0  0  0
    9.1576   -4.6236   15.8860 O   0  0  0  0  0  0  0  0  0  0  0  0
    9.1509   -5.9108   17.7177 C   0  0  0  0  0  0  0  0  0  0  0  0
    3.6373   -9.5349   16.0582 N   0  0  0  0  0  0  0  0  0  0  0  0
    9.9275   -4.8001   18.0438 N   0  0  0  0  0  0  0  0  0  0  0  0
    8.5908   -5.7425   16.4412 C   0  0  0  0  0  0  0  0  0  0  0  0
   10.5993   -4.8981   21.6068 C   0  0  0  0  0  0  0  0  0  0  0  0
   10.4258   -3.0106   23.0998 C   0  0  0  0  0  0  0  0  0  0  0  0
   10.2148   -3.4364   25.4200 C   0  0  0  0  0  0  0  0  0  0  0  0
    9.7853   -1.1840   24.4927 C   0  0  0  0  0  0  0  0  0  0  0  0
    5.0276   -8.5227   17.5352 C   0  0  0  0  0  0  0  0  0  0  0  0
    9.8187   -2.0895   25.5800 C   0  0  0  0  0  0  0  0  0  0  0  0
    5.6473   -8.7216   15.3158 C   0  0  0  0  0  0  0  0  0  0  0  0
   10.7581   -3.1233   19.4720 N   0  0  0  0  0  0  0  0  0  0  0  0
    9.9571   -4.0573   16.8866 C   0  0  0  0  0  0  0  0  0  0  0  0
    7.6213   -6.5618   16.0087 C   0  0  0  0  0  0  0  0  0  0  0  0
   10.8583   -2.6527   20.7222 C   0  0  0  0  0  0  0  0  0  0  0  0
   10.6412   -3.5089   21.7936 C   0  0  0  0  0  0  0  0  0  0  0  0
   10.4972   -3.8968   24.1589 C   0  0  0  0  0  0  0  0  0  0  0  0
    5.9260   -8.2736   16.5517 C   0  0  0  0  0  0  0  0  0  0  0  0
    3.8816   -9.1166   17.2493 C   0  0  0  0  0  0  0  0  0  0  0  0
   10.1297   -1.6575   23.2324 C   0  0  0  0  0  0  0  0  0  0  0  0
    9.4684   -1.6929   26.7263 F   0  0  0  0  0  0  0  0  0  0  0  0
    7.7963   -7.7906   17.9837 C   0  0  0  0  0  0  0  0  0  0  0  0
   10.5884   -3.0725   16.7902 O   0  0  0  0  0  0  0  0  0  0  0  0
   10.4323   -5.3494   20.3516 C   0  0  0  0  0  0  0  0  0  0  0  0
    7.1156   -7.5454   16.8218 C   0  0  0  0  0  0  0  0  0  0  0  0
   10.3885   -4.4388   19.2773 C   0  0  0  0  0  0  0  0  0  0  0  0
    4.5160   -9.3822   15.0841 C   0  0  0  0  0  0  0  0  0  0  0  0
  1  3  4  0
  1 24  4  0
  2  6  4  0
  2 15  4  0
  3  5  4  0
  3  6  4  0
  4 21  4  0
  4 29  4  0
  5 15  4  0
  5 28  1  0
  6 16  4  0
  7 18  4  0
  7 26  4  0
  8 18  1  0
  8 19  4  0
  8 22  4  0
  9 12  4  0
  9 19  4  0
 10 12  4  0
 10 22  4  0
 11 20  4  0
 11 21  4  0
 12 23  1  0
 13 20  4  0
 13 29  4  0
 14 17  4  0
 14 28  4  0
 15 25  2  0
 16 27  4  0
 17 18  4  0
 20 27  1  0
 24 27  4  0
 26 28  4  0
M  END
$$$$

 Created by Python create_sdf_string function

 29 33  0  0  0  0  0  0  0  0999 V2000
    8.8270   -7.0288   18.4251 C   0  0  0  0  0  0  0  0  0  0  0  0
    9.1576   -4.6236   15.8860 O   0  0  0  0  0  0  0  0  0  0  0  0
    9.1509   -5.9108   17.7177 C   0  0  0  0  0  0  0  0  0  0  0  0
    3.6373   -9.5349   16.0582 N   0  0  0  0  0  0  0  0  0  0  0  0
    9.9275   -4.8001   18.0438 N   0  0  0  0  0  0  0  0  0  0  0  0
    8.5908   -5.7425   16.4412 C   0  0  0  0  0  0  0  0  0  0  0  0
   10.5993   -4.8981   21.6068 C   0  0  0  0  0  0  0  0  0  0  0  0
   10.4258   -3.0106   23.0998 C   0  0  0  0  0  0  0  0  0  0  0  0
   10.2148   -3.4364   25.4200 C   0  0  0  0  0  0  0  0  0  0  0  0
    9.7853   -1.1840   24.4927 C   0  0  0  0  0  0  0  0  0  0  0  0
    5.0276   -8.5227   17.5352 C   0  0  0  0  0  0  0  0  0  0  0  0
    9.8187   -2.0895   25.5800 C   0  0  0  0  0  0  0  0  0  0  0  0
    5.6473   -8.7216   15.3158 C   0  0  0  0  0  0  0  0  0  0  0  0
   10.7581   -3.1233   19.4720 N   0  0  0  0  0  0  0  0  0  0  0  0
    9.9571   -4.0573   16.8866 C   0  0  0  0  0  0  0  0  0  0  0  0
    7.6213   -6.5618   16.0087 C   0  0  0  0  0  0  0  0  0  0  0  0
   10.8583   -2.6527   20.7222 C   0  0  0  0  0  0  0  0  0  0  0  0
   10.6412   -3.5089   21.7936 C   0  0  0  0  0  0  0  0  0  0  0  0
   10.4972   -3.8968   24.1589 C   0  0  0  0  0  0  0  0  0  0  0  0
    5.9260   -8.2736   16.5517 C   0  0  0  0  0  0  0  0  0  0  0  0
    3.8816   -9.1166   17.2493 C   0  0  0  0  0  0  0  0  0  0  0  0
   10.1297   -1.6575   23.2324 C   0  0  0  0  0  0  0  0  0  0  0  0
    9.4684   -1.6929   26.7263 F   0  0  0  0  0  0  0  0  0  0  0  0
    7.7963   -7.7906   17.9837 C   0  0  0  0  0  0  0  0  0  0  0  0
   10.5884   -3.0725   16.7902 O   0  0  0  0  0  0  0  0  0  0  0  0
   10.4323   -5.3494   20.3516 C   0  0  0  0  0  0  0  0  0  0  0  0
    7.1156   -7.5454   16.8218 C   0  0  0  0  0  0  0  0  0  0  0  0
   10.3885   -4.4388   19.2773 C   0  0  0  0  0  0  0  0  0  0  0  0
    4.5160   -9.3822   15.0841 C   0  0  0  0  0  0  0  0  0  0  0  0
  1  3  4  0
  1 24  4  0
  2  6  4  0
  2 15  4  0
  3  5  4  0
  3  6  4  0
  4 21  4  0
  4 29  4  0
  5 15  4  0
  5 28  1  0
  6 16  4  0
  7 18  4  0
  7 26  4  0
  8 18  1  0
  8 19  4  0
  8 22  4  0
  9 12  4  0
  9 19  4  0
 10 12  4  0
 10 22  4  0
 11 20  4  0
 11 21  4  0
 12 23  1  0
 13 20  4  0
 13 29  4  0
 14 17  4  0
 14 28  4  0
 15 25  2  0
 16 27  4  0
 17 18  4  0
 20 27  1  0
 24 27  4  0
 26 28  4  0
M  END
$$$$

 Created by Python create_sdf_string function

 29 33  0  0  0  0  0  0  0  0999 V2000
    8.8270   -7.0288   18.4251 C   0  0  0  0  0  0  0  0  0  0  0  0
    9.1576   -4.6236   15.8860 O   0  0  0  0  0  0  0  0  0  0  0  0
    9.1509   -5.9108   17.7177 C   0  0  0  0  0  0  0  0  0  0  0  0
    3.6373   -9.5349   16.0582 N   0  0  0  0  0  0  0  0  0  0  0  0
    9.9275   -4.8001   18.0438 N   0  0  0  0  0  0  0  0  0  0  0  0
    8.5908   -5.7425   16.4412 C   0  0  0  0  0  0  0  0  0  0  0  0
   10.5993   -4.8981   21.6068 C   0  0  0  0  0  0  0  0  0  0  0  0
   10.4258   -3.0106   23.0998 C   0  0  0  0  0  0  0  0  0  0  0  0
   10.2148   -3.4364   25.4200 C   0  0  0  0  0  0  0  0  0  0  0  0
    9.7853   -1.1840   24.4927 C   0  0  0  0  0  0  0  0  0  0  0  0
    5.0276   -8.5227   17.5352 C   0  0  0  0  0  0  0  0  0  0  0  0
    9.8187   -2.0895   25.5800 C   0  0  0  0  0  0  0  0  0  0  0  0
    5.6473   -8.7216   15.3158 C   0  0  0  0  0  0  0  0  0  0  0  0
   10.7581   -3.1233   19.4720 N   0  0  0  0  0  0  0  0  0  0  0  0
    9.9571   -4.0573   16.8866 C   0  0  0  0  0  0  0  0  0  0  0  0
    7.6213   -6.5618   16.0087 C   0  0  0  0  0  0  0  0  0  0  0  0
   10.8583   -2.6527   20.7222 C   0  0  0  0  0  0  0  0  0  0  0  0
   10.6412   -3.5089   21.7936 C   0  0  0  0  0  0  0  0  0  0  0  0
   10.4972   -3.8968   24.1589 C   0  0  0  0  0  0  0  0  0  0  0  0
    5.9260   -8.2736   16.5517 C   0  0  0  0  0  0  0  0  0  0  0  0
    3.8816   -9.1166   17.2493 C   0  0  0  0  0  0  0  0  0  0  0  0
   10.1297   -1.6575   23.2324 C   0  0  0  0  0  0  0  0  0  0  0  0
    9.4684   -1.6929   26.7263 F   0  0  0  0  0  0  0  0  0  0  0  0
    7.7963   -7.7906   17.9837 C   0  0  0  0  0  0  0  0  0  0  0  0
   10.5884   -3.0725   16.7902 O   0  0  0  0  0  0  0  0  0  0  0  0
   10.4323   -5.3494   20.3516 C   0  0  0  0  0  0  0  0  0  0  0  0
    7.1156   -7.5454   16.8218 C   0  0  0  0  0  0  0  0  0  0  0  0
   10.3885   -4.4388   19.2773 C   0  0  0  0  0  0  0  0  0  0  0  0
    4.5160   -9.3822   15.0841 C   0  0  0  0  0  0  0  0  0  0  0  0
  1  3  4  0
  1 24  4  0
  2  6  4  0
  2 15  4  0
  3  5  4  0
  3  6  4  0
  4 21  4  0
  4 29  4  0
  5 15  4  0
  5 28  1  0
  6 16  4  0
  7 18  4  0
  7 26  4  0
  8 18  1  0
  8 19  4  0
  8 22  4  0
  9 12  4  0
  9 19  4  0
 10 12  4  0
 10 22  4  0
 11 20  4  0
 11 21  4  0
 12 23  1  0
 13 20  4  0
 13 29  4  0
 14 17  4  0
 14 28  4  0
 15 25  2  0
 16 27  4  0
 17 18  4  0
 20 27  1  0
 24 27  4  0
 26 28  4  0
M  END
$$$$

 Created by Python create_sdf_string function

 29 33  0  0  0  0  0  0  0  0999 V2000
    8.8270   -7.0288   18.4251 C   0  0  0  0  0  0  0  0  0  0  0  0
    9.1576   -4.6236   15.8860 O   0  0  0  0  0  0  0  0  0  0  0  0
    9.1509   -5.9108   17.7177 C   0  0  0  0  0  0  0  0  0  0  0  0
    3.6373   -9.5349   16.0582 N   0  0  0  0  0  0  0  0  0  0  0  0
    9.9275   -4.8001   18.0438 N   0  0  0  0  0  0  0  0  0  0  0  0
    8.5908   -5.7425   16.4412 C   0  0  0  0  0  0  0  0  0  0  0  0
   10.5993   -4.8981   21.6068 C   0  0  0  0  0  0  0  0  0  0  0  0
   10.4258   -3.0106   23.0998 C   0  0  0  0  0  0  0  0  0  0  0  0
   10.2148   -3.4364   25.4200 C   0  0  0  0  0  0  0  0  0  0  0  0
    9.7853   -1.1840   24.4927 C   0  0  0  0  0  0  0  0  0  0  0  0
    5.0276   -8.5227   17.5352 C   0  0  0  0  0  0  0  0  0  0  0  0
    9.8187   -2.0895   25.5800 C   0  0  0  0  0  0  0  0  0  0  0  0
    5.6473   -8.7216   15.3158 C   0  0  0  0  0  0  0  0  0  0  0  0
   10.7581   -3.1233   19.4720 N   0  0  0  0  0  0  0  0  0  0  0  0
    9.9571   -4.0573   16.8866 C   0  0  0  0  0  0  0  0  0  0  0  0
    7.6213   -6.5618   16.0087 C   0  0  0  0  0  0  0  0  0  0  0  0
   10.8583   -2.6527   20.7222 C   0  0  0  0  0  0  0  0  0  0  0  0
   10.6412   -3.5089   21.7936 C   0  0  0  0  0  0  0  0  0  0  0  0
   10.4972   -3.8968   24.1589 C   0  0  0  0  0  0  0  0  0  0  0  0
    5.9260   -8.2736   16.5517 C   0  0  0  0  0  0  0  0  0  0  0  0
    3.8816   -9.1166   17.2493 C   0  0  0  0  0  0  0  0  0  0  0  0
   10.1297   -1.6575   23.2324 C   0  0  0  0  0  0  0  0  0  0  0  0
    9.4684   -1.6929   26.7263 F   0  0  0  0  0  0  0  0  0  0  0  0
    7.7963   -7.7906   17.9837 C   0  0  0  0  0  0  0  0  0  0  0  0
   10.5884   -3.0725   16.7902 O   0  0  0  0  0  0  0  0  0  0  0  0
   10.4323   -5.3494   20.3516 C   0  0  0  0  0  0  0  0  0  0  0  0
    7.1156   -7.5454   16.8218 C   0  0  0  0  0  0  0  0  0  0  0  0
   10.3885   -4.4388   19.2773 C   0  0  0  0  0  0  0  0  0  0  0  0
    4.5160   -9.3822   15.0841 C   0  0  0  0  0  0  0  0  0  0  0  0
  1  3  4  0
  1 24  4  0
  2  6  4  0
  2 15  4  0
  3  5  4  0
  3  6  4  0
  4 21  4  0
  4 29  4  0
  5 15  4  0
  5 28  1  0
  6 16  4  0
  7 18  4  0
  7 26  4  0
  8 18  1  0
  8 19  4  0
  8 22  4  0
  9 12  4  0
  9 19  4  0
 10 12  4  0
 10 22  4  0
 11 20  4  0
 11 21  4  0
 12 23  1  0
 13 20  4  0
 13 29  4  0
 14 17  4  0
 14 28  4  0
 15 25  2  0
 16 27  4  0
 17 18  4  0
 20 27  1  0
 24 27  4  0
 26 28  4  0
M  END
$$$$

 Created by Python create_sdf_string function

 29 33  0  0  0  0  0  0  0  0999 V2000
    8.8270   -7.0288   18.4251 C   0  0  0  0  0  0  0  0  0  0  0  0
    9.1576   -4.6236   15.8860 O   0  0  0  0  0  0  0  0  0  0  0  0
    9.1509   -5.9108   17.7177 C   0  0  0  0  0  0  0  0  0  0  0  0
    3.6373   -9.5349   16.0582 N   0  0  0  0  0  0  0  0  0  0  0  0
    9.9275   -4.8001   18.0438 N   0  0  0  0  0  0  0  0  0  0  0  0
    8.5908   -5.7425   16.4412 C   0  0  0  0  0  0  0  0  0  0  0  0
   10.5993   -4.8981   21.6068 C   0  0  0  0  0  0  0  0  0  0  0  0
   10.4258   -3.0106   23.0998 C   0  0  0  0  0  0  0  0  0  0  0  0
   10.2148   -3.4364   25.4200 C   0  0  0  0  0  0  0  0  0  0  0  0
    9.7853   -1.1840   24.4927 C   0  0  0  0  0  0  0  0  0  0  0  0
    5.0276   -8.5227   17.5352 C   0  0  0  0  0  0  0  0  0  0  0  0
    9.8187   -2.0895   25.5800 C   0  0  0  0  0  0  0  0  0  0  0  0
    5.6473   -8.7216   15.3158 C   0  0  0  0  0  0  0  0  0  0  0  0
   10.7581   -3.1233   19.4720 N   0  0  0  0  0  0  0  0  0  0  0  0
    9.9571   -4.0573   16.8866 C   0  0  0  0  0  0  0  0  0  0  0  0
    7.6213   -6.5618   16.0087 C   0  0  0  0  0  0  0  0  0  0  0  0
   10.8583   -2.6527   20.7222 C   0  0  0  0  0  0  0  0  0  0  0  0
   10.6412   -3.5089   21.7936 C   0  0  0  0  0  0  0  0  0  0  0  0
   10.4972   -3.8968   24.1589 C   0  0  0  0  0  0  0  0  0  0  0  0
    5.9260   -8.2736   16.5517 C   0  0  0  0  0  0  0  0  0  0  0  0
    3.8816   -9.1166   17.2493 C   0  0  0  0  0  0  0  0  0  0  0  0
   10.1297   -1.6575   23.2324 C   0  0  0  0  0  0  0  0  0  0  0  0
    9.4684   -1.6929   26.7263 F   0  0  0  0  0  0  0  0  0  0  0  0
    7.7963   -7.7906   17.9837 C   0  0  0  0  0  0  0  0  0  0  0  0
   10.5884   -3.0725   16.7902 O   0  0  0  0  0  0  0  0  0  0  0  0
   10.4323   -5.3494   20.3516 C   0  0  0  0  0  0  0  0  0  0  0  0
    7.1156   -7.5454   16.8218 C   0  0  0  0  0  0  0  0  0  0  0  0
   10.3885   -4.4388   19.2773 C   0  0  0  0  0  0  0  0  0  0  0  0
    4.5160   -9.3822   15.0841 C   0  0  0  0  0  0  0  0  0  0  0  0
  1  3  4  0
  1 24  4  0
  2  6  4  0
  2 15  4  0
  3  5  4  0
  3  6  4  0
  4 21  4  0
  4 29  4  0
  5 15  4  0
  5 28  1  0
  6 16  4  0
  7 18  4  0
  7 26  4  0
  8 18  1  0
  8 19  4  0
  8 22  4  0
  9 12  4  0
  9 19  4  0
 10 12  4  0
 10 22  4  0
 11 20  4  0
 11 21  4  0
 12 23  1  0
 13 20  4  0
 13 29  4  0
 14 17  4  0
 14 28  4  0
 15 25  2  0
 16 27  4  0
 17 18  4  0
 20 27  1  0
 24 27  4  0
 26 28  4  0
M  END
$$$$

 Created by Python create_sdf_string function

 29 33  0  0  0  0  0  0  0  0999 V2000
    8.8270   -7.0288   18.4251 C   0  0  0  0  0  0  0  0  0  0  0  0
    9.1576   -4.6236   15.8860 O   0  0  0  0  0  0  0  0  0  0  0  0
    9.1509   -5.9108   17.7177 C   0  0  0  0  0  0  0  0  0  0  0  0
    3.6373   -9.5349   16.0582 N   0  0  0  0  0  0  0  0  0  0  0  0
    9.9275   -4.8001   18.0438 N   0  0  0  0  0  0  0  0  0  0  0  0
    8.5908   -5.7425   16.4412 C   0  0  0  0  0  0  0  0  0  0  0  0
   10.5993   -4.8981   21.6068 C   0  0  0  0  0  0  0  0  0  0  0  0
   10.4258   -3.0106   23.0998 C   0  0  0  0  0  0  0  0  0  0  0  0
   10.2148   -3.4364   25.4200 C   0  0  0  0  0  0  0  0  0  0  0  0
    9.7853   -1.1840   24.4927 C   0  0  0  0  0  0  0  0  0  0  0  0
    5.0276   -8.5227   17.5352 C   0  0  0  0  0  0  0  0  0  0  0  0
    9.8187   -2.0895   25.5800 C   0  0  0  0  0  0  0  0  0  0  0  0
    5.6473   -8.7216   15.3158 C   0  0  0  0  0  0  0  0  0  0  0  0
   10.7581   -3.1233   19.4720 N   0  0  0  0  0  0  0  0  0  0  0  0
    9.9571   -4.0573   16.8866 C   0  0  0  0  0  0  0  0  0  0  0  0
    7.6213   -6.5618   16.0087 C   0  0  0  0  0  0  0  0  0  0  0  0
   10.8583   -2.6527   20.7222 C   0  0  0  0  0  0  0  0  0  0  0  0
   10.6412   -3.5089   21.7936 C   0  0  0  0  0  0  0  0  0  0  0  0
   10.4972   -3.8968   24.1589 C   0  0  0  0  0  0  0  0  0  0  0  0
    5.9260   -8.2736   16.5517 C   0  0  0  0  0  0  0  0  0  0  0  0
    3.8816   -9.1166   17.2493 C   0  0  0  0  0  0  0  0  0  0  0  0
   10.1297   -1.6575   23.2324 C   0  0  0  0  0  0  0  0  0  0  0  0
    9.4684   -1.6929   26.7263 F   0  0  0  0  0  0  0  0  0  0  0  0
    7.7963   -7.7906   17.9837 C   0  0  0  0  0  0  0  0  0  0  0  0
   10.5884   -3.0725   16.7902 O   0  0  0  0  0  0  0  0  0  0  0  0
   10.4323   -5.3494   20.3516 C   0  0  0  0  0  0  0  0  0  0  0  0
    7.1156   -7.5454   16.8218 C   0  0  0  0  0  0  0  0  0  0  0  0
   10.3885   -4.4388   19.2773 C   0  0  0  0  0  0  0  0  0  0  0  0
    4.5160   -9.3822   15.0841 C   0  0  0  0  0  0  0  0  0  0  0  0
  1  3  4  0
  1 24  4  0
  2  6  4  0
  2 15  4  0
  3  5  4  0
  3  6  4  0
  4 21  4  0
  4 29  4  0
  5 15  4  0
  5 28  1  0
  6 16  4  0
  7 18  4  0
  7 26  4  0
  8 18  1  0
  8 19  4  0
  8 22  4  0
  9 12  4  0
  9 19  4  0
 10 12  4  0
 10 22  4  0
 11 20  4  0
 11 21  4  0
 12 23  1  0
 13 20  4  0
 13 29  4  0
 14 17  4  0
 14 28  4  0
 15 25  2  0
 16 27  4  0
 17 18  4  0
 20 27  1  0
 24 27  4  0
 26 28  4  0
M  END
$$$$

 Created by Python create_sdf_string function

 29 33  0  0  0  0  0  0  0  0999 V2000
    8.8270   -7.0288   18.4251 C   0  0  0  0  0  0  0  0  0  0  0  0
    9.1576   -4.6236   15.8860 O   0  0  0  0  0  0  0  0  0  0  0  0
    9.1509   -5.9108   17.7177 C   0  0  0  0  0  0  0  0  0  0  0  0
    3.6373   -9.5349   16.0582 N   0  0  0  0  0  0  0  0  0  0  0  0
    9.9275   -4.8001   18.0438 N   0  0  0  0  0  0  0  0  0  0  0  0
    8.5908   -5.7425   16.4412 C   0  0  0  0  0  0  0  0  0  0  0  0
   10.5993   -4.8981   21.6068 C   0  0  0  0  0  0  0  0  0  0  0  0
   10.4258   -3.0106   23.0998 C   0  0  0  0  0  0  0  0  0  0  0  0
   10.2148   -3.4364   25.4200 C   0  0  0  0  0  0  0  0  0  0  0  0
    9.7853   -1.1840   24.4927 C   0  0  0  0  0  0  0  0  0  0  0  0
    5.0276   -8.5227   17.5352 C   0  0  0  0  0  0  0  0  0  0  0  0
    9.8187   -2.0895   25.5800 C   0  0  0  0  0  0  0  0  0  0  0  0
    5.6473   -8.7216   15.3158 C   0  0  0  0  0  0  0  0  0  0  0  0
   10.7581   -3.1233   19.4720 N   0  0  0  0  0  0  0  0  0  0  0  0
    9.9571   -4.0573   16.8866 C   0  0  0  0  0  0  0  0  0  0  0  0
    7.6213   -6.5618   16.0087 C   0  0  0  0  0  0  0  0  0  0  0  0
   10.8583   -2.6527   20.7222 C   0  0  0  0  0  0  0  0  0  0  0  0
   10.6412   -3.5089   21.7936 C   0  0  0  0  0  0  0  0  0  0  0  0
   10.4972   -3.8968   24.1589 C   0  0  0  0  0  0  0  0  0  0  0  0
    5.9260   -8.2736   16.5517 C   0  0  0  0  0  0  0  0  0  0  0  0
    3.8816   -9.1166   17.2493 C   0  0  0  0  0  0  0  0  0  0  0  0
   10.1297   -1.6575   23.2324 C   0  0  0  0  0  0  0  0  0  0  0  0
    9.4684   -1.6929   26.7263 F   0  0  0  0  0  0  0  0  0  0  0  0
    7.7963   -7.7906   17.9837 C   0  0  0  0  0  0  0  0  0  0  0  0
   10.5884   -3.0725   16.7902 O   0  0  0  0  0  0  0  0  0  0  0  0
   10.4323   -5.3494   20.3516 C   0  0  0  0  0  0  0  0  0  0  0  0
    7.1156   -7.5454   16.8218 C   0  0  0  0  0  0  0  0  0  0  0  0
   10.3885   -4.4388   19.2773 C   0  0  0  0  0  0  0  0  0  0  0  0
    4.5160   -9.3822   15.0841 C   0  0  0  0  0  0  0  0  0  0  0  0
  1  3  4  0
  1 24  4  0
  2  6  4  0
  2 15  4  0
  3  5  4  0
  3  6  4  0
  4 21  4  0
  4 29  4  0
  5 15  4  0
  5 28  1  0
  6 16  4  0
  7 18  4  0
  7 26  4  0
  8 18  1  0
  8 19  4  0
  8 22  4  0
  9 12  4  0
  9 19  4  0
 10 12  4  0
 10 22  4  0
 11 20  4  0
 11 21  4  0
 12 23  1  0
 13 20  4  0
 13 29  4  0
 14 17  4  0
 14 28  4  0
 15 25  2  0
 16 27  4  0
 17 18  4  0
 20 27  1  0
 24 27  4  0
 26 28  4  0
M  END
$$$$

 Created by Python create_sdf_string function

 29 33  0  0  0  0  0  0  0  0999 V2000
    8.8270   -7.0288   18.4251 C   0  0  0  0  0  0  0  0  0  0  0  0
    9.1576   -4.6236   15.8860 O   0  0  0  0  0  0  0  0  0  0  0  0
    9.1509   -5.9108   17.7177 C   0  0  0  0  0  0  0  0  0  0  0  0
    3.6373   -9.5349   16.0582 N   0  0  0  0  0  0  0  0  0  0  0  0
    9.9275   -4.8001   18.0438 N   0  0  0  0  0  0  0  0  0  0  0  0
    8.5908   -5.7425   16.4412 C   0  0  0  0  0  0  0  0  0  0  0  0
   10.5993   -4.8981   21.6068 C   0  0  0  0  0  0  0  0  0  0  0  0
   10.4258   -3.0106   23.0998 C   0  0  0  0  0  0  0  0  0  0  0  0
   10.2148   -3.4364   25.4200 C   0  0  0  0  0  0  0  0  0  0  0  0
    9.7853   -1.1840   24.4927 C   0  0  0  0  0  0  0  0  0  0  0  0
    5.0276   -8.5227   17.5352 C   0  0  0  0  0  0  0  0  0  0  0  0
    9.8187   -2.0895   25.5800 C   0  0  0  0  0  0  0  0  0  0  0  0
    5.6473   -8.7216   15.3158 C   0  0  0  0  0  0  0  0  0  0  0  0
   10.7581   -3.1233   19.4720 N   0  0  0  0  0  0  0  0  0  0  0  0
    9.9571   -4.0573   16.8866 C   0  0  0  0  0  0  0  0  0  0  0  0
    7.6213   -6.5618   16.0087 C   0  0  0  0  0  0  0  0  0  0  0  0
   10.8583   -2.6527   20.7222 C   0  0  0  0  0  0  0  0  0  0  0  0
   10.6412   -3.5089   21.7936 C   0  0  0  0  0  0  0  0  0  0  0  0
   10.4972   -3.8968   24.1589 C   0  0  0  0  0  0  0  0  0  0  0  0
    5.9260   -8.2736   16.5517 C   0  0  0  0  0  0  0  0  0  0  0  0
    3.8816   -9.1166   17.2493 C   0  0  0  0  0  0  0  0  0  0  0  0
   10.1297   -1.6575   23.2324 C   0  0  0  0  0  0  0  0  0  0  0  0
    9.4684   -1.6929   26.7263 F   0  0  0  0  0  0  0  0  0  0  0  0
    7.7963   -7.7906   17.9837 C   0  0  0  0  0  0  0  0  0  0  0  0
   10.5884   -3.0725   16.7902 O   0  0  0  0  0  0  0  0  0  0  0  0
   10.4323   -5.3494   20.3516 C   0  0  0  0  0  0  0  0  0  0  0  0
    7.1156   -7.5454   16.8218 C   0  0  0  0  0  0  0  0  0  0  0  0
   10.3885   -4.4388   19.2773 C   0  0  0  0  0  0  0  0  0  0  0  0
    4.5160   -9.3822   15.0841 C   0  0  0  0  0  0  0  0  0  0  0  0
  1  3  4  0
  1 24  4  0
  2  6  4  0
  2 15  4  0
  3  5  4  0
  3  6  4  0
  4 21  4  0
  4 29  4  0
  5 15  4  0
  5 28  1  0
  6 16  4  0
  7 18  4  0
  7 26  4  0
  8 18  1  0
  8 19  4  0
  8 22  4  0
  9 12  4  0
  9 19  4  0
 10 12  4  0
 10 22  4  0
 11 20  4  0
 11 21  4  0
 12 23  1  0
 13 20  4  0
 13 29  4  0
 14 17  4  0
 14 28  4  0
 15 25  2  0
 16 27  4  0
 17 18  4  0
 20 27  1  0
 24 27  4  0
 26 28  4  0
M  END
$$$$

 Created by Python create_sdf_string function

 29 33  0  0  0  0  0  0  0  0999 V2000
    8.8270   -7.0288   18.4251 C   0  0  0  0  0  0  0  0  0  0  0  0
    9.1576   -4.6236   15.8860 O   0  0  0  0  0  0  0  0  0  0  0  0
    9.1509   -5.9108   17.7177 C   0  0  0  0  0  0  0  0  0  0  0  0
    3.6373   -9.5349   16.0582 N   0  0  0  0  0  0  0  0  0  0  0  0
    9.9275   -4.8001   18.0438 N   0  0  0  0  0  0  0  0  0  0  0  0
    8.5908   -5.7425   16.4412 C   0  0  0  0  0  0  0  0  0  0  0  0
   10.5993   -4.8981   21.6068 C   0  0  0  0  0  0  0  0  0  0  0  0
   10.4258   -3.0106   23.0998 C   0  0  0  0  0  0  0  0  0  0  0  0
   10.2148   -3.4364   25.4200 C   0  0  0  0  0  0  0  0  0  0  0  0
    9.7853   -1.1840   24.4927 C   0  0  0  0  0  0  0  0  0  0  0  0
    5.0276   -8.5227   17.5352 C   0  0  0  0  0  0  0  0  0  0  0  0
    9.8187   -2.0895   25.5800 C   0  0  0  0  0  0  0  0  0  0  0  0
    5.6473   -8.7216   15.3158 C   0  0  0  0  0  0  0  0  0  0  0  0
   10.7581   -3.1233   19.4720 N   0  0  0  0  0  0  0  0  0  0  0  0
    9.9571   -4.0573   16.8866 C   0  0  0  0  0  0  0  0  0  0  0  0
    7.6213   -6.5618   16.0087 C   0  0  0  0  0  0  0  0  0  0  0  0
   10.8583   -2.6527   20.7222 C   0  0  0  0  0  0  0  0  0  0  0  0
   10.6412   -3.5089   21.7936 C   0  0  0  0  0  0  0  0  0  0  0  0
   10.4972   -3.8968   24.1589 C   0  0  0  0  0  0  0  0  0  0  0  0
    5.9260   -8.2736   16.5517 C   0  0  0  0  0  0  0  0  0  0  0  0
    3.8816   -9.1166   17.2493 C   0  0  0  0  0  0  0  0  0  0  0  0
   10.1297   -1.6575   23.2324 C   0  0  0  0  0  0  0  0  0  0  0  0
    9.4684   -1.6929   26.7263 F   0  0  0  0  0  0  0  0  0  0  0  0
    7.7963   -7.7906   17.9837 C   0  0  0  0  0  0  0  0  0  0  0  0
   10.5884   -3.0725   16.7902 O   0  0  0  0  0  0  0  0  0  0  0  0
   10.4323   -5.3494   20.3516 C   0  0  0  0  0  0  0  0  0  0  0  0
    7.1156   -7.5454   16.8218 C   0  0  0  0  0  0  0  0  0  0  0  0
   10.3885   -4.4388   19.2773 C   0  0  0  0  0  0  0  0  0  0  0  0
    4.5160   -9.3822   15.0841 C   0  0  0  0  0  0  0  0  0  0  0  0
  1  3  4  0
  1 24  4  0
  2  6  4  0
  2 15  4  0
  3  5  4  0
  3  6  4  0
  4 21  4  0
  4 29  4  0
  5 15  4  0
  5 28  1  0
  6 16  4  0
  7 18  4  0
  7 26  4  0
  8 18  1  0
  8 19  4  0
  8 22  4  0
  9 12  4  0
  9 19  4  0
 10 12  4  0
 10 22  4  0
 11 20  4  0
 11 21  4  0
 12 23  1  0
 13 20  4  0
 13 29  4  0
 14 17  4  0
 14 28  4  0
 15 25  2  0
 16 27  4  0
 17 18  4  0
 20 27  1  0
 24 27  4  0
 26 28  4  0
M  END
$$$$

 Created by Python create_sdf_string function

 29 33  0  0  0  0  0  0  0  0999 V2000
    8.8270   -7.0288   18.4251 C   0  0  0  0  0  0  0  0  0  0  0  0
    9.1576   -4.6236   15.8860 O   0  0  0  0  0  0  0  0  0  0  0  0
    9.1509   -5.9108   17.7177 C   0  0  0  0  0  0  0  0  0  0  0  0
    3.6373   -9.5349   16.0582 N   0  0  0  0  0  0  0  0  0  0  0  0
    9.9275   -4.8001   18.0438 N   0  0  0  0  0  0  0  0  0  0  0  0
    8.5908   -5.7425   16.4412 C   0  0  0  0  0  0  0  0  0  0  0  0
   10.5993   -4.8981   21.6068 C   0  0  0  0  0  0  0  0  0  0  0  0
   10.4258   -3.0106   23.0998 C   0  0  0  0  0  0  0  0  0  0  0  0
   10.2148   -3.4364   25.4200 C   0  0  0  0  0  0  0  0  0  0  0  0
    9.7853   -1.1840   24.4927 C   0  0  0  0  0  0  0  0  0  0  0  0
    5.0276   -8.5227   17.5352 C   0  0  0  0  0  0  0  0  0  0  0  0
    9.8187   -2.0895   25.5800 C   0  0  0  0  0  0  0  0  0  0  0  0
    5.6473   -8.7216   15.3158 C   0  0  0  0  0  0  0  0  0  0  0  0
   10.7581   -3.1233   19.4720 N   0  0  0  0  0  0  0  0  0  0  0  0
    9.9571   -4.0573   16.8866 C   0  0  0  0  0  0  0  0  0  0  0  0
    7.6213   -6.5618   16.0087 C   0  0  0  0  0  0  0  0  0  0  0  0
   10.8583   -2.6527   20.7222 C   0  0  0  0  0  0  0  0  0  0  0  0
   10.6412   -3.5089   21.7936 C   0  0  0  0  0  0  0  0  0  0  0  0
   10.4972   -3.8968   24.1589 C   0  0  0  0  0  0  0  0  0  0  0  0
    5.9260   -8.2736   16.5517 C   0  0  0  0  0  0  0  0  0  0  0  0
    3.8816   -9.1166   17.2493 C   0  0  0  0  0  0  0  0  0  0  0  0
   10.1297   -1.6575   23.2324 C   0  0  0  0  0  0  0  0  0  0  0  0
    9.4684   -1.6929   26.7263 F   0  0  0  0  0  0  0  0  0  0  0  0
    7.7963   -7.7906   17.9837 C   0  0  0  0  0  0  0  0  0  0  0  0
   10.5884   -3.0725   16.7902 O   0  0  0  0  0  0  0  0  0  0  0  0
   10.4323   -5.3494   20.3516 C   0  0  0  0  0  0  0  0  0  0  0  0
    7.1156   -7.5454   16.8218 C   0  0  0  0  0  0  0  0  0  0  0  0
   10.3885   -4.4388   19.2773 C   0  0  0  0  0  0  0  0  0  0  0  0
    4.5160   -9.3822   15.0841 C   0  0  0  0  0  0  0  0  0  0  0  0
  1  3  4  0
  1 24  4  0
  2  6  4  0
  2 15  4  0
  3  5  4  0
  3  6  4  0
  4 21  4  0
  4 29  4  0
  5 15  4  0
  5 28  1  0
  6 16  4  0
  7 18  4  0
  7 26  4  0
  8 18  1  0
  8 19  4  0
  8 22  4  0
  9 12  4  0
  9 19  4  0
 10 12  4  0
 10 22  4  0
 11 20  4  0
 11 21  4  0
 12 23  1  0
 13 20  4  0
 13 29  4  0
 14 17  4  0
 14 28  4  0
 15 25  2  0
 16 27  4  0
 17 18  4  0
 20 27  1  0
 24 27  4  0
 26 28  4  0
M  END
$$$$

 Created by Python create_sdf_string function

 29 33  0  0  0  0  0  0  0  0999 V2000
    8.8270   -7.0288   18.4251 C   0  0  0  0  0  0  0  0  0  0  0  0
    9.1576   -4.6236   15.8860 O   0  0  0  0  0  0  0  0  0  0  0  0
    9.1509   -5.9108   17.7177 C   0  0  0  0  0  0  0  0  0  0  0  0
    3.6373   -9.5349   16.0582 N   0  0  0  0  0  0  0  0  0  0  0  0
    9.9275   -4.8001   18.0438 N   0  0  0  0  0  0  0  0  0  0  0  0
    8.5908   -5.7425   16.4412 C   0  0  0  0  0  0  0  0  0  0  0  0
   10.5993   -4.8981   21.6068 C   0  0  0  0  0  0  0  0  0  0  0  0
   10.4258   -3.0106   23.0998 C   0  0  0  0  0  0  0  0  0  0  0  0
   10.2148   -3.4364   25.4200 C   0  0  0  0  0  0  0  0  0  0  0  0
    9.7853   -1.1840   24.4927 C   0  0  0  0  0  0  0  0  0  0  0  0
    5.0276   -8.5227   17.5352 C   0  0  0  0  0  0  0  0  0  0  0  0
    9.8187   -2.0895   25.5800 C   0  0  0  0  0  0  0  0  0  0  0  0
    5.6473   -8.7216   15.3158 C   0  0  0  0  0  0  0  0  0  0  0  0
   10.7581   -3.1233   19.4720 N   0  0  0  0  0  0  0  0  0  0  0  0
    9.9571   -4.0573   16.8866 C   0  0  0  0  0  0  0  0  0  0  0  0
    7.6213   -6.5618   16.0087 C   0  0  0  0  0  0  0  0  0  0  0  0
   10.8583   -2.6527   20.7222 C   0  0  0  0  0  0  0  0  0  0  0  0
   10.6412   -3.5089   21.7936 C   0  0  0  0  0  0  0  0  0  0  0  0
   10.4972   -3.8968   24.1589 C   0  0  0  0  0  0  0  0  0  0  0  0
    5.9260   -8.2736   16.5517 C   0  0  0  0  0  0  0  0  0  0  0  0
    3.8816   -9.1166   17.2493 C   0  0  0  0  0  0  0  0  0  0  0  0
   10.1297   -1.6575   23.2324 C   0  0  0  0  0  0  0  0  0  0  0  0
    9.4684   -1.6929   26.7263 F   0  0  0  0  0  0  0  0  0  0  0  0
    7.7963   -7.7906   17.9837 C   0  0  0  0  0  0  0  0  0  0  0  0
   10.5884   -3.0725   16.7902 O   0  0  0  0  0  0  0  0  0  0  0  0
   10.4323   -5.3494   20.3516 C   0  0  0  0  0  0  0  0  0  0  0  0
    7.1156   -7.5454   16.8218 C   0  0  0  0  0  0  0  0  0  0  0  0
   10.3885   -4.4388   19.2773 C   0  0  0  0  0  0  0  0  0  0  0  0
    4.5160   -9.3822   15.0841 C   0  0  0  0  0  0  0  0  0  0  0  0
  1  3  4  0
  1 24  4  0
  2  6  4  0
  2 15  4  0
  3  5  4  0
  3  6  4  0
  4 21  4  0
  4 29  4  0
  5 15  4  0
  5 28  1  0
  6 16  4  0
  7 18  4  0
  7 26  4  0
  8 18  1  0
  8 19  4  0
  8 22  4  0
  9 12  4  0
  9 19  4  0
 10 12  4  0
 10 22  4  0
 11 20  4  0
 11 21  4  0
 12 23  1  0
 13 20  4  0
 13 29  4  0
 14 17  4  0
 14 28  4  0
 15 25  2  0
 16 27  4  0
 17 18  4  0
 20 27  1  0
 24 27  4  0
 26 28  4  0
M  END
$$$$

 Created by Python create_sdf_string function

 29 33  0  0  0  0  0  0  0  0999 V2000
    8.8270   -7.0288   18.4251 C   0  0  0  0  0  0  0  0  0  0  0  0
    9.1576   -4.6236   15.8860 O   0  0  0  0  0  0  0  0  0  0  0  0
    9.1509   -5.9108   17.7177 C   0  0  0  0  0  0  0  0  0  0  0  0
    3.6373   -9.5349   16.0582 N   0  0  0  0  0  0  0  0  0  0  0  0
    9.9275   -4.8001   18.0438 N   0  0  0  0  0  0  0  0  0  0  0  0
    8.5908   -5.7425   16.4412 C   0  0  0  0  0  0  0  0  0  0  0  0
   10.5993   -4.8981   21.6068 C   0  0  0  0  0  0  0  0  0  0  0  0
   10.4258   -3.0106   23.0998 C   0  0  0  0  0  0  0  0  0  0  0  0
   10.2148   -3.4364   25.4200 C   0  0  0  0  0  0  0  0  0  0  0  0
    9.7853   -1.1840   24.4927 C   0  0  0  0  0  0  0  0  0  0  0  0
    5.0276   -8.5227   17.5352 C   0  0  0  0  0  0  0  0  0  0  0  0
    9.8187   -2.0895   25.5800 C   0  0  0  0  0  0  0  0  0  0  0  0
    5.6473   -8.7216   15.3158 C   0  0  0  0  0  0  0  0  0  0  0  0
   10.7581   -3.1233   19.4720 N   0  0  0  0  0  0  0  0  0  0  0  0
    9.9571   -4.0573   16.8866 C   0  0  0  0  0  0  0  0  0  0  0  0
    7.6213   -6.5618   16.0087 C   0  0  0  0  0  0  0  0  0  0  0  0
   10.8583   -2.6527   20.7222 C   0  0  0  0  0  0  0  0  0  0  0  0
   10.6412   -3.5089   21.7936 C   0  0  0  0  0  0  0  0  0  0  0  0
   10.4972   -3.8968   24.1589 C   0  0  0  0  0  0  0  0  0  0  0  0
    5.9260   -8.2736   16.5517 C   0  0  0  0  0  0  0  0  0  0  0  0
    3.8816   -9.1166   17.2493 C   0  0  0  0  0  0  0  0  0  0  0  0
   10.1297   -1.6575   23.2324 C   0  0  0  0  0  0  0  0  0  0  0  0
    9.4684   -1.6929   26.7263 F   0  0  0  0  0  0  0  0  0  0  0  0
    7.7963   -7.7906   17.9837 C   0  0  0  0  0  0  0  0  0  0  0  0
   10.5884   -3.0725   16.7902 O   0  0  0  0  0  0  0  0  0  0  0  0
   10.4323   -5.3494   20.3516 C   0  0  0  0  0  0  0  0  0  0  0  0
    7.1156   -7.5454   16.8218 C   0  0  0  0  0  0  0  0  0  0  0  0
   10.3885   -4.4388   19.2773 C   0  0  0  0  0  0  0  0  0  0  0  0
    4.5160   -9.3822   15.0841 C   0  0  0  0  0  0  0  0  0  0  0  0
  1  3  4  0
  1 24  4  0
  2  6  4  0
  2 15  4  0
  3  5  4  0
  3  6  4  0
  4 21  4  0
  4 29  4  0
  5 15  4  0
  5 28  1  0
  6 16  4  0
  7 18  4  0
  7 26  4  0
  8 18  1  0
  8 19  4  0
  8 22  4  0
  9 12  4  0
  9 19  4  0
 10 12  4  0
 10 22  4  0
 11 20  4  0
 11 21  4  0
 12 23  1  0
 13 20  4  0
 13 29  4  0
 14 17  4  0
 14 28  4  0
 15 25  2  0
 16 27  4  0
 17 18  4  0
 20 27  1  0
 24 27  4  0
 26 28  4  0
M  END
$$$$

 Created by Python create_sdf_string function

 29 33  0  0  0  0  0  0  0  0999 V2000
    8.8270   -7.0288   18.4251 C   0  0  0  0  0  0  0  0  0  0  0  0
    9.1576   -4.6236   15.8860 O   0  0  0  0  0  0  0  0  0  0  0  0
    9.1509   -5.9108   17.7177 C   0  0  0  0  0  0  0  0  0  0  0  0
    3.6373   -9.5349   16.0582 N   0  0  0  0  0  0  0  0  0  0  0  0
    9.9275   -4.8001   18.0438 N   0  0  0  0  0  0  0  0  0  0  0  0
    8.5908   -5.7425   16.4412 C   0  0  0  0  0  0  0  0  0  0  0  0
   10.5993   -4.8981   21.6068 C   0  0  0  0  0  0  0  0  0  0  0  0
   10.4258   -3.0106   23.0998 C   0  0  0  0  0  0  0  0  0  0  0  0
   10.2148   -3.4364   25.4200 C   0  0  0  0  0  0  0  0  0  0  0  0
    9.7853   -1.1840   24.4927 C   0  0  0  0  0  0  0  0  0  0  0  0
    5.0276   -8.5227   17.5352 C   0  0  0  0  0  0  0  0  0  0  0  0
    9.8187   -2.0895   25.5800 C   0  0  0  0  0  0  0  0  0  0  0  0
    5.6473   -8.7216   15.3158 C   0  0  0  0  0  0  0  0  0  0  0  0
   10.7581   -3.1233   19.4720 N   0  0  0  0  0  0  0  0  0  0  0  0
    9.9571   -4.0573   16.8866 C   0  0  0  0  0  0  0  0  0  0  0  0
    7.6213   -6.5618   16.0087 C   0  0  0  0  0  0  0  0  0  0  0  0
   10.8583   -2.6527   20.7222 C   0  0  0  0  0  0  0  0  0  0  0  0
   10.6412   -3.5089   21.7936 C   0  0  0  0  0  0  0  0  0  0  0  0
   10.4972   -3.8968   24.1589 C   0  0  0  0  0  0  0  0  0  0  0  0
    5.9260   -8.2736   16.5517 C   0  0  0  0  0  0  0  0  0  0  0  0
    3.8816   -9.1166   17.2493 C   0  0  0  0  0  0  0  0  0  0  0  0
   10.1297   -1.6575   23.2324 C   0  0  0  0  0  0  0  0  0  0  0  0
    9.4684   -1.6929   26.7263 F   0  0  0  0  0  0  0  0  0  0  0  0
    7.7963   -7.7906   17.9837 C   0  0  0  0  0  0  0  0  0  0  0  0
   10.5884   -3.0725   16.7902 O   0  0  0  0  0  0  0  0  0  0  0  0
   10.4323   -5.3494   20.3516 C   0  0  0  0  0  0  0  0  0  0  0  0
    7.1156   -7.5454   16.8218 C   0  0  0  0  0  0  0  0  0  0  0  0
   10.3885   -4.4388   19.2773 C   0  0  0  0  0  0  0  0  0  0  0  0
    4.5160   -9.3822   15.0841 C   0  0  0  0  0  0  0  0  0  0  0  0
  1  3  4  0
  1 24  4  0
  2  6  4  0
  2 15  4  0
  3  5  4  0
  3  6  4  0
  4 21  4  0
  4 29  4  0
  5 15  4  0
  5 28  1  0
  6 16  4  0
  7 18  4  0
  7 26  4  0
  8 18  1  0
  8 19  4  0
  8 22  4  0
  9 12  4  0
  9 19  4  0
 10 12  4  0
 10 22  4  0
 11 20  4  0
 11 21  4  0
 12 23  1  0
 13 20  4  0
 13 29  4  0
 14 17  4  0
 14 28  4  0
 15 25  2  0
 16 27  4  0
 17 18  4  0
 20 27  1  0
 24 27  4  0
 26 28  4  0
M  END
$$$$

 Created by Python create_sdf_string function

 29 33  0  0  0  0  0  0  0  0999 V2000
    8.8270   -7.0288   18.4251 C   0  0  0  0  0  0  0  0  0  0  0  0
    9.1576   -4.6236   15.8860 O   0  0  0  0  0  0  0  0  0  0  0  0
    9.1509   -5.9108   17.7177 C   0  0  0  0  0  0  0  0  0  0  0  0
    3.6373   -9.5349   16.0582 N   0  0  0  0  0  0  0  0  0  0  0  0
    9.9275   -4.8001   18.0438 N   0  0  0  0  0  0  0  0  0  0  0  0
    8.5908   -5.7425   16.4412 C   0  0  0  0  0  0  0  0  0  0  0  0
   10.5993   -4.8981   21.6068 C   0  0  0  0  0  0  0  0  0  0  0  0
   10.4258   -3.0106   23.0998 C   0  0  0  0  0  0  0  0  0  0  0  0
   10.2148   -3.4364   25.4200 C   0  0  0  0  0  0  0  0  0  0  0  0
    9.7853   -1.1840   24.4927 C   0  0  0  0  0  0  0  0  0  0  0  0
    5.0276   -8.5227   17.5352 C   0  0  0  0  0  0  0  0  0  0  0  0
    9.8187   -2.0895   25.5800 C   0  0  0  0  0  0  0  0  0  0  0  0
    5.6473   -8.7216   15.3158 C   0  0  0  0  0  0  0  0  0  0  0  0
   10.7581   -3.1233   19.4720 N   0  0  0  0  0  0  0  0  0  0  0  0
    9.9571   -4.0573   16.8866 C   0  0  0  0  0  0  0  0  0  0  0  0
    7.6213   -6.5618   16.0087 C   0  0  0  0  0  0  0  0  0  0  0  0
   10.8583   -2.6527   20.7222 C   0  0  0  0  0  0  0  0  0  0  0  0
   10.6412   -3.5089   21.7936 C   0  0  0  0  0  0  0  0  0  0  0  0
   10.4972   -3.8968   24.1589 C   0  0  0  0  0  0  0  0  0  0  0  0
    5.9260   -8.2736   16.5517 C   0  0  0  0  0  0  0  0  0  0  0  0
    3.8816   -9.1166   17.2493 C   0  0  0  0  0  0  0  0  0  0  0  0
   10.1297   -1.6575   23.2324 C   0  0  0  0  0  0  0  0  0  0  0  0
    9.4684   -1.6929   26.7263 F   0  0  0  0  0  0  0  0  0  0  0  0
    7.7963   -7.7906   17.9837 C   0  0  0  0  0  0  0  0  0  0  0  0
   10.5884   -3.0725   16.7902 O   0  0  0  0  0  0  0  0  0  0  0  0
   10.4323   -5.3494   20.3516 C   0  0  0  0  0  0  0  0  0  0  0  0
    7.1156   -7.5454   16.8218 C   0  0  0  0  0  0  0  0  0  0  0  0
   10.3885   -4.4388   19.2773 C   0  0  0  0  0  0  0  0  0  0  0  0
    4.5160   -9.3822   15.0841 C   0  0  0  0  0  0  0  0  0  0  0  0
  1  3  4  0
  1 24  4  0
  2  6  4  0
  2 15  4  0
  3  5  4  0
  3  6  4  0
  4 21  4  0
  4 29  4  0
  5 15  4  0
  5 28  1  0
  6 16  4  0
  7 18  4  0
  7 26  4  0
  8 18  1  0
  8 19  4  0
  8 22  4  0
  9 12  4  0
  9 19  4  0
 10 12  4  0
 10 22  4  0
 11 20  4  0
 11 21  4  0
 12 23  1  0
 13 20  4  0
 13 29  4  0
 14 17  4  0
 14 28  4  0
 15 25  2  0
 16 27  4  0
 17 18  4  0
 20 27  1  0
 24 27  4  0
 26 28  4  0
M  END
$$$$

 Created by Python create_sdf_string function

 29 33  0  0  0  0  0  0  0  0999 V2000
    8.8270   -7.0288   18.4251 C   0  0  0  0  0  0  0  0  0  0  0  0
    9.1576   -4.6236   15.8860 O   0  0  0  0  0  0  0  0  0  0  0  0
    9.1509   -5.9108   17.7177 C   0  0  0  0  0  0  0  0  0  0  0  0
    3.6373   -9.5349   16.0582 N   0  0  0  0  0  0  0  0  0  0  0  0
    9.9275   -4.8001   18.0438 N   0  0  0  0  0  0  0  0  0  0  0  0
    8.5908   -5.7425   16.4412 C   0  0  0  0  0  0  0  0  0  0  0  0
   10.5993   -4.8981   21.6068 C   0  0  0  0  0  0  0  0  0  0  0  0
   10.4258   -3.0106   23.0998 C   0  0  0  0  0  0  0  0  0  0  0  0
   10.2148   -3.4364   25.4200 C   0  0  0  0  0  0  0  0  0  0  0  0
    9.7853   -1.1840   24.4927 C   0  0  0  0  0  0  0  0  0  0  0  0
    5.0276   -8.5227   17.5352 C   0  0  0  0  0  0  0  0  0  0  0  0
    9.8187   -2.0895   25.5800 C   0  0  0  0  0  0  0  0  0  0  0  0
    5.6473   -8.7216   15.3158 C   0  0  0  0  0  0  0  0  0  0  0  0
   10.7581   -3.1233   19.4720 N   0  0  0  0  0  0  0  0  0  0  0  0
    9.9571   -4.0573   16.8866 C   0  0  0  0  0  0  0  0  0  0  0  0
    7.6213   -6.5618   16.0087 C   0  0  0  0  0  0  0  0  0  0  0  0
   10.8583   -2.6527   20.7222 C   0  0  0  0  0  0  0  0  0  0  0  0
   10.6412   -3.5089   21.7936 C   0  0  0  0  0  0  0  0  0  0  0  0
   10.4972   -3.8968   24.1589 C   0  0  0  0  0  0  0  0  0  0  0  0
    5.9260   -8.2736   16.5517 C   0  0  0  0  0  0  0  0  0  0  0  0
    3.8816   -9.1166   17.2493 C   0  0  0  0  0  0  0  0  0  0  0  0
   10.1297   -1.6575   23.2324 C   0  0  0  0  0  0  0  0  0  0  0  0
    9.4684   -1.6929   26.7263 F   0  0  0  0  0  0  0  0  0  0  0  0
    7.7963   -7.7906   17.9837 C   0  0  0  0  0  0  0  0  0  0  0  0
   10.5884   -3.0725   16.7902 O   0  0  0  0  0  0  0  0  0  0  0  0
   10.4323   -5.3494   20.3516 C   0  0  0  0  0  0  0  0  0  0  0  0
    7.1156   -7.5454   16.8218 C   0  0  0  0  0  0  0  0  0  0  0  0
   10.3885   -4.4388   19.2773 C   0  0  0  0  0  0  0  0  0  0  0  0
    4.5160   -9.3822   15.0841 C   0  0  0  0  0  0  0  0  0  0  0  0
  1  3  4  0
  1 24  4  0
  2  6  4  0
  2 15  4  0
  3  5  4  0
  3  6  4  0
  4 21  4  0
  4 29  4  0
  5 15  4  0
  5 28  1  0
  6 16  4  0
  7 18  4  0
  7 26  4  0
  8 18  1  0
  8 19  4  0
  8 22  4  0
  9 12  4  0
  9 19  4  0
 10 12  4  0
 10 22  4  0
 11 20  4  0
 11 21  4  0
 12 23  1  0
 13 20  4  0
 13 29  4  0
 14 17  4  0
 14 28  4  0
 15 25  2  0
 16 27  4  0
 17 18  4  0
 20 27  1  0
 24 27  4  0
 26 28  4  0
M  END
$$$$

 Created by Python create_sdf_string function

 29 33  0  0  0  0  0  0  0  0999 V2000
    8.8270   -7.0288   18.4251 C   0  0  0  0  0  0  0  0  0  0  0  0
    9.1576   -4.6236   15.8860 O   0  0  0  0  0  0  0  0  0  0  0  0
    9.1509   -5.9108   17.7177 C   0  0  0  0  0  0  0  0  0  0  0  0
    3.6373   -9.5349   16.0582 N   0  0  0  0  0  0  0  0  0  0  0  0
    9.9275   -4.8001   18.0438 N   0  0  0  0  0  0  0  0  0  0  0  0
    8.5908   -5.7425   16.4412 C   0  0  0  0  0  0  0  0  0  0  0  0
   10.5993   -4.8981   21.6068 C   0  0  0  0  0  0  0  0  0  0  0  0
   10.4258   -3.0106   23.0998 C   0  0  0  0  0  0  0  0  0  0  0  0
   10.2148   -3.4364   25.4200 C   0  0  0  0  0  0  0  0  0  0  0  0
    9.7853   -1.1840   24.4927 C   0  0  0  0  0  0  0  0  0  0  0  0
    5.0276   -8.5227   17.5352 C   0  0  0  0  0  0  0  0  0  0  0  0
    9.8187   -2.0895   25.5800 C   0  0  0  0  0  0  0  0  0  0  0  0
    5.6473   -8.7216   15.3158 C   0  0  0  0  0  0  0  0  0  0  0  0
   10.7581   -3.1233   19.4720 N   0  0  0  0  0  0  0  0  0  0  0  0
    9.9571   -4.0573   16.8866 C   0  0  0  0  0  0  0  0  0  0  0  0
    7.6213   -6.5618   16.0087 C   0  0  0  0  0  0  0  0  0  0  0  0
   10.8583   -2.6527   20.7222 C   0  0  0  0  0  0  0  0  0  0  0  0
   10.6412   -3.5089   21.7936 C   0  0  0  0  0  0  0  0  0  0  0  0
   10.4972   -3.8968   24.1589 C   0  0  0  0  0  0  0  0  0  0  0  0
    5.9260   -8.2736   16.5517 C   0  0  0  0  0  0  0  0  0  0  0  0
    3.8816   -9.1166   17.2493 C   0  0  0  0  0  0  0  0  0  0  0  0
   10.1297   -1.6575   23.2324 C   0  0  0  0  0  0  0  0  0  0  0  0
    9.4684   -1.6929   26.7263 F   0  0  0  0  0  0  0  0  0  0  0  0
    7.7963   -7.7906   17.9837 C   0  0  0  0  0  0  0  0  0  0  0  0
   10.5884   -3.0725   16.7902 O   0  0  0  0  0  0  0  0  0  0  0  0
   10.4323   -5.3494   20.3516 C   0  0  0  0  0  0  0  0  0  0  0  0
    7.1156   -7.5454   16.8218 C   0  0  0  0  0  0  0  0  0  0  0  0
   10.3885   -4.4388   19.2773 C   0  0  0  0  0  0  0  0  0  0  0  0
    4.5160   -9.3822   15.0841 C   0  0  0  0  0  0  0  0  0  0  0  0
  1  3  4  0
  1 24  4  0
  2  6  4  0
  2 15  4  0
  3  5  4  0
  3  6  4  0
  4 21  4  0
  4 29  4  0
  5 15  4  0
  5 28  1  0
  6 16  4  0
  7 18  4  0
  7 26  4  0
  8 18  1  0
  8 19  4  0
  8 22  4  0
  9 12  4  0
  9 19  4  0
 10 12  4  0
 10 22  4  0
 11 20  4  0
 11 21  4  0
 12 23  1  0
 13 20  4  0
 13 29  4  0
 14 17  4  0
 14 28  4  0
 15 25  2  0
 16 27  4  0
 17 18  4  0
 20 27  1  0
 24 27  4  0
 26 28  4  0
M  END
$$$$

 Created by Python create_sdf_string function

 29 33  0  0  0  0  0  0  0  0999 V2000
    8.8270   -7.0288   18.4251 C   0  0  0  0  0  0  0  0  0  0  0  0
    9.1576   -4.6236   15.8860 O   0  0  0  0  0  0  0  0  0  0  0  0
    9.1509   -5.9108   17.7177 C   0  0  0  0  0  0  0  0  0  0  0  0
    3.6373   -9.5349   16.0582 N   0  0  0  0  0  0  0  0  0  0  0  0
    9.9275   -4.8001   18.0438 N   0  0  0  0  0  0  0  0  0  0  0  0
    8.5908   -5.7425   16.4412 C   0  0  0  0  0  0  0  0  0  0  0  0
   10.5993   -4.8981   21.6068 C   0  0  0  0  0  0  0  0  0  0  0  0
   10.4258   -3.0106   23.0998 C   0  0  0  0  0  0  0  0  0  0  0  0
   10.2148   -3.4364   25.4200 C   0  0  0  0  0  0  0  0  0  0  0  0
    9.7853   -1.1840   24.4927 C   0  0  0  0  0  0  0  0  0  0  0  0
    5.0276   -8.5227   17.5352 C   0  0  0  0  0  0  0  0  0  0  0  0
    9.8187   -2.0895   25.5800 C   0  0  0  0  0  0  0  0  0  0  0  0
    5.6473   -8.7216   15.3158 C   0  0  0  0  0  0  0  0  0  0  0  0
   10.7581   -3.1233   19.4720 N   0  0  0  0  0  0  0  0  0  0  0  0
    9.9571   -4.0573   16.8866 C   0  0  0  0  0  0  0  0  0  0  0  0
    7.6213   -6.5618   16.0087 C   0  0  0  0  0  0  0  0  0  0  0  0
   10.8583   -2.6527   20.7222 C   0  0  0  0  0  0  0  0  0  0  0  0
   10.6412   -3.5089   21.7936 C   0  0  0  0  0  0  0  0  0  0  0  0
   10.4972   -3.8968   24.1589 C   0  0  0  0  0  0  0  0  0  0  0  0
    5.9260   -8.2736   16.5517 C   0  0  0  0  0  0  0  0  0  0  0  0
    3.8816   -9.1166   17.2493 C   0  0  0  0  0  0  0  0  0  0  0  0
   10.1297   -1.6575   23.2324 C   0  0  0  0  0  0  0  0  0  0  0  0
    9.4684   -1.6929   26.7263 F   0  0  0  0  0  0  0  0  0  0  0  0
    7.7963   -7.7906   17.9837 C   0  0  0  0  0  0  0  0  0  0  0  0
   10.5884   -3.0725   16.7902 O   0  0  0  0  0  0  0  0  0  0  0  0
   10.4323   -5.3494   20.3516 C   0  0  0  0  0  0  0  0  0  0  0  0
    7.1156   -7.5454   16.8218 C   0  0  0  0  0  0  0  0  0  0  0  0
   10.3885   -4.4388   19.2773 C   0  0  0  0  0  0  0  0  0  0  0  0
    4.5160   -9.3822   15.0841 C   0  0  0  0  0  0  0  0  0  0  0  0
  1  3  4  0
  1 24  4  0
  2  6  4  0
  2 15  4  0
  3  5  4  0
  3  6  4  0
  4 21  4  0
  4 29  4  0
  5 15  4  0
  5 28  1  0
  6 16  4  0
  7 18  4  0
  7 26  4  0
  8 18  1  0
  8 19  4  0
  8 22  4  0
  9 12  4  0
  9 19  4  0
 10 12  4  0
 10 22  4  0
 11 20  4  0
 11 21  4  0
 12 23  1  0
 13 20  4  0
 13 29  4  0
 14 17  4  0
 14 28  4  0
 15 25  2  0
 16 27  4  0
 17 18  4  0
 20 27  1  0
 24 27  4  0
 26 28  4  0
M  END
$$$$

 Created by Python create_sdf_string function

 29 33  0  0  0  0  0  0  0  0999 V2000
    8.8270   -7.0288   18.4251 C   0  0  0  0  0  0  0  0  0  0  0  0
    9.1576   -4.6236   15.8860 O   0  0  0  0  0  0  0  0  0  0  0  0
    9.1509   -5.9108   17.7177 C   0  0  0  0  0  0  0  0  0  0  0  0
    3.6373   -9.5349   16.0582 N   0  0  0  0  0  0  0  0  0  0  0  0
    9.9275   -4.8001   18.0438 N   0  0  0  0  0  0  0  0  0  0  0  0
    8.5908   -5.7425   16.4412 C   0  0  0  0  0  0  0  0  0  0  0  0
   10.5993   -4.8981   21.6068 C   0  0  0  0  0  0  0  0  0  0  0  0
   10.4258   -3.0106   23.0998 C   0  0  0  0  0  0  0  0  0  0  0  0
   10.2148   -3.4364   25.4200 C   0  0  0  0  0  0  0  0  0  0  0  0
    9.7853   -1.1840   24.4927 C   0  0  0  0  0  0  0  0  0  0  0  0
    5.0276   -8.5227   17.5352 C   0  0  0  0  0  0  0  0  0  0  0  0
    9.8187   -2.0895   25.5800 C   0  0  0  0  0  0  0  0  0  0  0  0
    5.6473   -8.7216   15.3158 C   0  0  0  0  0  0  0  0  0  0  0  0
   10.7581   -3.1233   19.4720 N   0  0  0  0  0  0  0  0  0  0  0  0
    9.9571   -4.0573   16.8866 C   0  0  0  0  0  0  0  0  0  0  0  0
    7.6213   -6.5618   16.0087 C   0  0  0  0  0  0  0  0  0  0  0  0
   10.8583   -2.6527   20.7222 C   0  0  0  0  0  0  0  0  0  0  0  0
   10.6412   -3.5089   21.7936 C   0  0  0  0  0  0  0  0  0  0  0  0
   10.4972   -3.8968   24.1589 C   0  0  0  0  0  0  0  0  0  0  0  0
    5.9260   -8.2736   16.5517 C   0  0  0  0  0  0  0  0  0  0  0  0
    3.8816   -9.1166   17.2493 C   0  0  0  0  0  0  0  0  0  0  0  0
   10.1297   -1.6575   23.2324 C   0  0  0  0  0  0  0  0  0  0  0  0
    9.4684   -1.6929   26.7263 F   0  0  0  0  0  0  0  0  0  0  0  0
    7.7963   -7.7906   17.9837 C   0  0  0  0  0  0  0  0  0  0  0  0
   10.5884   -3.0725   16.7902 O   0  0  0  0  0  0  0  0  0  0  0  0
   10.4323   -5.3494   20.3516 C   0  0  0  0  0  0  0  0  0  0  0  0
    7.1156   -7.5454   16.8218 C   0  0  0  0  0  0  0  0  0  0  0  0
   10.3885   -4.4388   19.2773 C   0  0  0  0  0  0  0  0  0  0  0  0
    4.5160   -9.3822   15.0841 C   0  0  0  0  0  0  0  0  0  0  0  0
  1  3  4  0
  1 24  4  0
  2  6  4  0
  2 15  4  0
  3  5  4  0
  3  6  4  0
  4 21  4  0
  4 29  4  0
  5 15  4  0
  5 28  1  0
  6 16  4  0
  7 18  4  0
  7 26  4  0
  8 18  1  0
  8 19  4  0
  8 22  4  0
  9 12  4  0
  9 19  4  0
 10 12  4  0
 10 22  4  0
 11 20  4  0
 11 21  4  0
 12 23  1  0
 13 20  4  0
 13 29  4  0
 14 17  4  0
 14 28  4  0
 15 25  2  0
 16 27  4  0
 17 18  4  0
 20 27  1  0
 24 27  4  0
 26 28  4  0
M  END
$$$$

 Created by Python create_sdf_string function

 29 33  0  0  0  0  0  0  0  0999 V2000
    8.8270   -7.0288   18.4251 C   0  0  0  0  0  0  0  0  0  0  0  0
    9.1576   -4.6236   15.8860 O   0  0  0  0  0  0  0  0  0  0  0  0
    9.1509   -5.9108   17.7177 C   0  0  0  0  0  0  0  0  0  0  0  0
    3.6373   -9.5349   16.0582 N   0  0  0  0  0  0  0  0  0  0  0  0
    9.9275   -4.8001   18.0438 N   0  0  0  0  0  0  0  0  0  0  0  0
    8.5908   -5.7425   16.4412 C   0  0  0  0  0  0  0  0  0  0  0  0
   10.5993   -4.8981   21.6068 C   0  0  0  0  0  0  0  0  0  0  0  0
   10.4258   -3.0106   23.0998 C   0  0  0  0  0  0  0  0  0  0  0  0
   10.2148   -3.4364   25.4200 C   0  0  0  0  0  0  0  0  0  0  0  0
    9.7853   -1.1840   24.4927 C   0  0  0  0  0  0  0  0  0  0  0  0
    5.0276   -8.5227   17.5352 C   0  0  0  0  0  0  0  0  0  0  0  0
    9.8187   -2.0895   25.5800 C   0  0  0  0  0  0  0  0  0  0  0  0
    5.6473   -8.7216   15.3158 C   0  0  0  0  0  0  0  0  0  0  0  0
   10.7581   -3.1233   19.4720 N   0  0  0  0  0  0  0  0  0  0  0  0
    9.9571   -4.0573   16.8866 C   0  0  0  0  0  0  0  0  0  0  0  0
    7.6213   -6.5618   16.0087 C   0  0  0  0  0  0  0  0  0  0  0  0
   10.8583   -2.6527   20.7222 C   0  0  0  0  0  0  0  0  0  0  0  0
   10.6412   -3.5089   21.7936 C   0  0  0  0  0  0  0  0  0  0  0  0
   10.4972   -3.8968   24.1589 C   0  0  0  0  0  0  0  0  0  0  0  0
    5.9260   -8.2736   16.5517 C   0  0  0  0  0  0  0  0  0  0  0  0
    3.8816   -9.1166   17.2493 C   0  0  0  0  0  0  0  0  0  0  0  0
   10.1297   -1.6575   23.2324 C   0  0  0  0  0  0  0  0  0  0  0  0
    9.4684   -1.6929   26.7263 F   0  0  0  0  0  0  0  0  0  0  0  0
    7.7963   -7.7906   17.9837 C   0  0  0  0  0  0  0  0  0  0  0  0
   10.5884   -3.0725   16.7902 O   0  0  0  0  0  0  0  0  0  0  0  0
   10.4323   -5.3494   20.3516 C   0  0  0  0  0  0  0  0  0  0  0  0
    7.1156   -7.5454   16.8218 C   0  0  0  0  0  0  0  0  0  0  0  0
   10.3885   -4.4388   19.2773 C   0  0  0  0  0  0  0  0  0  0  0  0
    4.5160   -9.3822   15.0841 C   0  0  0  0  0  0  0  0  0  0  0  0
  1  3  4  0
  1 24  4  0
  2  6  4  0
  2 15  4  0
  3  5  4  0
  3  6  4  0
  4 21  4  0
  4 29  4  0
  5 15  4  0
  5 28  1  0
  6 16  4  0
  7 18  4  0
  7 26  4  0
  8 18  1  0
  8 19  4  0
  8 22  4  0
  9 12  4  0
  9 19  4  0
 10 12  4  0
 10 22  4  0
 11 20  4  0
 11 21  4  0
 12 23  1  0
 13 20  4  0
 13 29  4  0
 14 17  4  0
 14 28  4  0
 15 25  2  0
 16 27  4  0
 17 18  4  0
 20 27  1  0
 24 27  4  0
 26 28  4  0
M  END
$$$$

 Created by Python create_sdf_string function

 29 33  0  0  0  0  0  0  0  0999 V2000
    8.8270   -7.0288   18.4251 C   0  0  0  0  0  0  0  0  0  0  0  0
    9.1576   -4.6236   15.8860 O   0  0  0  0  0  0  0  0  0  0  0  0
    9.1509   -5.9108   17.7177 C   0  0  0  0  0  0  0  0  0  0  0  0
    3.6373   -9.5349   16.0582 N   0  0  0  0  0  0  0  0  0  0  0  0
    9.9275   -4.8001   18.0438 N   0  0  0  0  0  0  0  0  0  0  0  0
    8.5908   -5.7425   16.4412 C   0  0  0  0  0  0  0  0  0  0  0  0
   10.5993   -4.8981   21.6068 C   0  0  0  0  0  0  0  0  0  0  0  0
   10.4258   -3.0106   23.0998 C   0  0  0  0  0  0  0  0  0  0  0  0
   10.2148   -3.4364   25.4200 C   0  0  0  0  0  0  0  0  0  0  0  0
    9.7853   -1.1840   24.4927 C   0  0  0  0  0  0  0  0  0  0  0  0
    5.0276   -8.5227   17.5352 C   0  0  0  0  0  0  0  0  0  0  0  0
    9.8187   -2.0895   25.5800 C   0  0  0  0  0  0  0  0  0  0  0  0
    5.6473   -8.7216   15.3158 C   0  0  0  0  0  0  0  0  0  0  0  0
   10.7581   -3.1233   19.4720 N   0  0  0  0  0  0  0  0  0  0  0  0
    9.9571   -4.0573   16.8866 C   0  0  0  0  0  0  0  0  0  0  0  0
    7.6213   -6.5618   16.0087 C   0  0  0  0  0  0  0  0  0  0  0  0
   10.8583   -2.6527   20.7222 C   0  0  0  0  0  0  0  0  0  0  0  0
   10.6412   -3.5089   21.7936 C   0  0  0  0  0  0  0  0  0  0  0  0
   10.4972   -3.8968   24.1589 C   0  0  0  0  0  0  0  0  0  0  0  0
    5.9260   -8.2736   16.5517 C   0  0  0  0  0  0  0  0  0  0  0  0
    3.8816   -9.1166   17.2493 C   0  0  0  0  0  0  0  0  0  0  0  0
   10.1297   -1.6575   23.2324 C   0  0  0  0  0  0  0  0  0  0  0  0
    9.4684   -1.6929   26.7263 F   0  0  0  0  0  0  0  0  0  0  0  0
    7.7963   -7.7906   17.9837 C   0  0  0  0  0  0  0  0  0  0  0  0
   10.5884   -3.0725   16.7902 O   0  0  0  0  0  0  0  0  0  0  0  0
   10.4323   -5.3494   20.3516 C   0  0  0  0  0  0  0  0  0  0  0  0
    7.1156   -7.5454   16.8218 C   0  0  0  0  0  0  0  0  0  0  0  0
   10.3885   -4.4388   19.2773 C   0  0  0  0  0  0  0  0  0  0  0  0
    4.5160   -9.3822   15.0841 C   0  0  0  0  0  0  0  0  0  0  0  0
  1  3  4  0
  1 24  4  0
  2  6  4  0
  2 15  4  0
  3  5  4  0
  3  6  4  0
  4 21  4  0
  4 29  4  0
  5 15  4  0
  5 28  1  0
  6 16  4  0
  7 18  4  0
  7 26  4  0
  8 18  1  0
  8 19  4  0
  8 22  4  0
  9 12  4  0
  9 19  4  0
 10 12  4  0
 10 22  4  0
 11 20  4  0
 11 21  4  0
 12 23  1  0
 13 20  4  0
 13 29  4  0
 14 17  4  0
 14 28  4  0
 15 25  2  0
 16 27  4  0
 17 18  4  0
 20 27  1  0
 24 27  4  0
 26 28  4  0
M  END
$$$$

 Created by Python create_sdf_string function

 29 33  0  0  0  0  0  0  0  0999 V2000
    8.8270   -7.0288   18.4251 C   0  0  0  0  0  0  0  0  0  0  0  0
    9.1576   -4.6236   15.8860 O   0  0  0  0  0  0  0  0  0  0  0  0
    9.1509   -5.9108   17.7177 C   0  0  0  0  0  0  0  0  0  0  0  0
    3.6373   -9.5349   16.0582 N   0  0  0  0  0  0  0  0  0  0  0  0
    9.9275   -4.8001   18.0438 N   0  0  0  0  0  0  0  0  0  0  0  0
    8.5908   -5.7425   16.4412 C   0  0  0  0  0  0  0  0  0  0  0  0
   10.5993   -4.8981   21.6068 C   0  0  0  0  0  0  0  0  0  0  0  0
   10.4258   -3.0106   23.0998 C   0  0  0  0  0  0  0  0  0  0  0  0
   10.2148   -3.4364   25.4200 C   0  0  0  0  0  0  0  0  0  0  0  0
    9.7853   -1.1840   24.4927 C   0  0  0  0  0  0  0  0  0  0  0  0
    5.0276   -8.5227   17.5352 C   0  0  0  0  0  0  0  0  0  0  0  0
    9.8187   -2.0895   25.5800 C   0  0  0  0  0  0  0  0  0  0  0  0
    5.6473   -8.7216   15.3158 C   0  0  0  0  0  0  0  0  0  0  0  0
   10.7581   -3.1233   19.4720 N   0  0  0  0  0  0  0  0  0  0  0  0
    9.9571   -4.0573   16.8866 C   0  0  0  0  0  0  0  0  0  0  0  0
    7.6213   -6.5618   16.0087 C   0  0  0  0  0  0  0  0  0  0  0  0
   10.8583   -2.6527   20.7222 C   0  0  0  0  0  0  0  0  0  0  0  0
   10.6412   -3.5089   21.7936 C   0  0  0  0  0  0  0  0  0  0  0  0
   10.4972   -3.8968   24.1589 C   0  0  0  0  0  0  0  0  0  0  0  0
    5.9260   -8.2736   16.5517 C   0  0  0  0  0  0  0  0  0  0  0  0
    3.8816   -9.1166   17.2493 C   0  0  0  0  0  0  0  0  0  0  0  0
   10.1297   -1.6575   23.2324 C   0  0  0  0  0  0  0  0  0  0  0  0
    9.4684   -1.6929   26.7263 F   0  0  0  0  0  0  0  0  0  0  0  0
    7.7963   -7.7906   17.9837 C   0  0  0  0  0  0  0  0  0  0  0  0
   10.5884   -3.0725   16.7902 O   0  0  0  0  0  0  0  0  0  0  0  0
   10.4323   -5.3494   20.3516 C   0  0  0  0  0  0  0  0  0  0  0  0
    7.1156   -7.5454   16.8218 C   0  0  0  0  0  0  0  0  0  0  0  0
   10.3885   -4.4388   19.2773 C   0  0  0  0  0  0  0  0  0  0  0  0
    4.5160   -9.3822   15.0841 C   0  0  0  0  0  0  0  0  0  0  0  0
  1  3  4  0
  1 24  4  0
  2  6  4  0
  2 15  4  0
  3  5  4  0
  3  6  4  0
  4 21  4  0
  4 29  4  0
  5 15  4  0
  5 28  1  0
  6 16  4  0
  7 18  4  0
  7 26  4  0
  8 18  1  0
  8 19  4  0
  8 22  4  0
  9 12  4  0
  9 19  4  0
 10 12  4  0
 10 22  4  0
 11 20  4  0
 11 21  4  0
 12 23  1  0
 13 20  4  0
 13 29  4  0
 14 17  4  0
 14 28  4  0
 15 25  2  0
 16 27  4  0
 17 18  4  0
 20 27  1  0
 24 27  4  0
 26 28  4  0
M  END
$$$$

 Created by Python create_sdf_string function

 29 33  0  0  0  0  0  0  0  0999 V2000
    8.8270   -7.0288   18.4251 C   0  0  0  0  0  0  0  0  0  0  0  0
    9.1576   -4.6236   15.8860 O   0  0  0  0  0  0  0  0  0  0  0  0
    9.1509   -5.9108   17.7177 C   0  0  0  0  0  0  0  0  0  0  0  0
    3.6373   -9.5349   16.0582 N   0  0  0  0  0  0  0  0  0  0  0  0
    9.9275   -4.8001   18.0438 N   0  0  0  0  0  0  0  0  0  0  0  0
    8.5908   -5.7425   16.4412 C   0  0  0  0  0  0  0  0  0  0  0  0
   10.5993   -4.8981   21.6068 C   0  0  0  0  0  0  0  0  0  0  0  0
   10.4258   -3.0106   23.0998 C   0  0  0  0  0  0  0  0  0  0  0  0
   10.2148   -3.4364   25.4200 C   0  0  0  0  0  0  0  0  0  0  0  0
    9.7853   -1.1840   24.4927 C   0  0  0  0  0  0  0  0  0  0  0  0
    5.0276   -8.5227   17.5352 C   0  0  0  0  0  0  0  0  0  0  0  0
    9.8187   -2.0895   25.5800 C   0  0  0  0  0  0  0  0  0  0  0  0
    5.6473   -8.7216   15.3158 C   0  0  0  0  0  0  0  0  0  0  0  0
   10.7581   -3.1233   19.4720 N   0  0  0  0  0  0  0  0  0  0  0  0
    9.9571   -4.0573   16.8866 C   0  0  0  0  0  0  0  0  0  0  0  0
    7.6213   -6.5618   16.0087 C   0  0  0  0  0  0  0  0  0  0  0  0
   10.8583   -2.6527   20.7222 C   0  0  0  0  0  0  0  0  0  0  0  0
   10.6412   -3.5089   21.7936 C   0  0  0  0  0  0  0  0  0  0  0  0
   10.4972   -3.8968   24.1589 C   0  0  0  0  0  0  0  0  0  0  0  0
    5.9260   -8.2736   16.5517 C   0  0  0  0  0  0  0  0  0  0  0  0
    3.8816   -9.1166   17.2493 C   0  0  0  0  0  0  0  0  0  0  0  0
   10.1297   -1.6575   23.2324 C   0  0  0  0  0  0  0  0  0  0  0  0
    9.4684   -1.6929   26.7263 F   0  0  0  0  0  0  0  0  0  0  0  0
    7.7963   -7.7906   17.9837 C   0  0  0  0  0  0  0  0  0  0  0  0
   10.5884   -3.0725   16.7902 O   0  0  0  0  0  0  0  0  0  0  0  0
   10.4323   -5.3494   20.3516 C   0  0  0  0  0  0  0  0  0  0  0  0
    7.1156   -7.5454   16.8218 C   0  0  0  0  0  0  0  0  0  0  0  0
   10.3885   -4.4388   19.2773 C   0  0  0  0  0  0  0  0  0  0  0  0
    4.5160   -9.3822   15.0841 C   0  0  0  0  0  0  0  0  0  0  0  0
  1  3  4  0
  1 24  4  0
  2  6  4  0
  2 15  4  0
  3  5  4  0
  3  6  4  0
  4 21  4  0
  4 29  4  0
  5 15  4  0
  5 28  1  0
  6 16  4  0
  7 18  4  0
  7 26  4  0
  8 18  1  0
  8 19  4  0
  8 22  4  0
  9 12  4  0
  9 19  4  0
 10 12  4  0
 10 22  4  0
 11 20  4  0
 11 21  4  0
 12 23  1  0
 13 20  4  0
 13 29  4  0
 14 17  4  0
 14 28  4  0
 15 25  2  0
 16 27  4  0
 17 18  4  0
 20 27  1  0
 24 27  4  0
 26 28  4  0
M  END
$$$$

 Created by Python create_sdf_string function

 29 33  0  0  0  0  0  0  0  0999 V2000
    8.8270   -7.0288   18.4251 C   0  0  0  0  0  0  0  0  0  0  0  0
    9.1576   -4.6236   15.8860 O   0  0  0  0  0  0  0  0  0  0  0  0
    9.1509   -5.9108   17.7177 C   0  0  0  0  0  0  0  0  0  0  0  0
    3.6373   -9.5349   16.0582 N   0  0  0  0  0  0  0  0  0  0  0  0
    9.9275   -4.8001   18.0438 N   0  0  0  0  0  0  0  0  0  0  0  0
    8.5908   -5.7425   16.4412 C   0  0  0  0  0  0  0  0  0  0  0  0
   10.5993   -4.8981   21.6068 C   0  0  0  0  0  0  0  0  0  0  0  0
   10.4258   -3.0106   23.0998 C   0  0  0  0  0  0  0  0  0  0  0  0
   10.2148   -3.4364   25.4200 C   0  0  0  0  0  0  0  0  0  0  0  0
    9.7853   -1.1840   24.4927 C   0  0  0  0  0  0  0  0  0  0  0  0
    5.0276   -8.5227   17.5352 C   0  0  0  0  0  0  0  0  0  0  0  0
    9.8187   -2.0895   25.5800 C   0  0  0  0  0  0  0  0  0  0  0  0
    5.6473   -8.7216   15.3158 C   0  0  0  0  0  0  0  0  0  0  0  0
   10.7581   -3.1233   19.4720 N   0  0  0  0  0  0  0  0  0  0  0  0
    9.9571   -4.0573   16.8866 C   0  0  0  0  0  0  0  0  0  0  0  0
    7.6213   -6.5618   16.0087 C   0  0  0  0  0  0  0  0  0  0  0  0
   10.8583   -2.6527   20.7222 C   0  0  0  0  0  0  0  0  0  0  0  0
   10.6412   -3.5089   21.7936 C   0  0  0  0  0  0  0  0  0  0  0  0
   10.4972   -3.8968   24.1589 C   0  0  0  0  0  0  0  0  0  0  0  0
    5.9260   -8.2736   16.5517 C   0  0  0  0  0  0  0  0  0  0  0  0
    3.8816   -9.1166   17.2493 C   0  0  0  0  0  0  0  0  0  0  0  0
   10.1297   -1.6575   23.2324 C   0  0  0  0  0  0  0  0  0  0  0  0
    9.4684   -1.6929   26.7263 F   0  0  0  0  0  0  0  0  0  0  0  0
    7.7963   -7.7906   17.9837 C   0  0  0  0  0  0  0  0  0  0  0  0
   10.5884   -3.0725   16.7902 O   0  0  0  0  0  0  0  0  0  0  0  0
   10.4323   -5.3494   20.3516 C   0  0  0  0  0  0  0  0  0  0  0  0
    7.1156   -7.5454   16.8218 C   0  0  0  0  0  0  0  0  0  0  0  0
   10.3885   -4.4388   19.2773 C   0  0  0  0  0  0  0  0  0  0  0  0
    4.5160   -9.3822   15.0841 C   0  0  0  0  0  0  0  0  0  0  0  0
  1  3  4  0
  1 24  4  0
  2  6  4  0
  2 15  4  0
  3  5  4  0
  3  6  4  0
  4 21  4  0
  4 29  4  0
  5 15  4  0
  5 28  1  0
  6 16  4  0
  7 18  4  0
  7 26  4  0
  8 18  1  0
  8 19  4  0
  8 22  4  0
  9 12  4  0
  9 19  4  0
 10 12  4  0
 10 22  4  0
 11 20  4  0
 11 21  4  0
 12 23  1  0
 13 20  4  0
 13 29  4  0
 14 17  4  0
 14 28  4  0
 15 25  2  0
 16 27  4  0
 17 18  4  0
 20 27  1  0
 24 27  4  0
 26 28  4  0
M  END
$$$$

 Created by Python create_sdf_string function

 29 33  0  0  0  0  0  0  0  0999 V2000
    8.8270   -7.0288   18.4251 C   0  0  0  0  0  0  0  0  0  0  0  0
    9.1576   -4.6236   15.8860 O   0  0  0  0  0  0  0  0  0  0  0  0
    9.1509   -5.9108   17.7177 C   0  0  0  0  0  0  0  0  0  0  0  0
    3.6373   -9.5349   16.0582 N   0  0  0  0  0  0  0  0  0  0  0  0
    9.9275   -4.8001   18.0438 N   0  0  0  0  0  0  0  0  0  0  0  0
    8.5908   -5.7425   16.4412 C   0  0  0  0  0  0  0  0  0  0  0  0
   10.5993   -4.8981   21.6068 C   0  0  0  0  0  0  0  0  0  0  0  0
   10.4258   -3.0106   23.0998 C   0  0  0  0  0  0  0  0  0  0  0  0
   10.2148   -3.4364   25.4200 C   0  0  0  0  0  0  0  0  0  0  0  0
    9.7853   -1.1840   24.4927 C   0  0  0  0  0  0  0  0  0  0  0  0
    5.0276   -8.5227   17.5352 C   0  0  0  0  0  0  0  0  0  0  0  0
    9.8187   -2.0895   25.5800 C   0  0  0  0  0  0  0  0  0  0  0  0
    5.6473   -8.7216   15.3158 C   0  0  0  0  0  0  0  0  0  0  0  0
   10.7581   -3.1233   19.4720 N   0  0  0  0  0  0  0  0  0  0  0  0
    9.9571   -4.0573   16.8866 C   0  0  0  0  0  0  0  0  0  0  0  0
    7.6213   -6.5618   16.0087 C   0  0  0  0  0  0  0  0  0  0  0  0
   10.8583   -2.6527   20.7222 C   0  0  0  0  0  0  0  0  0  0  0  0
   10.6412   -3.5089   21.7936 C   0  0  0  0  0  0  0  0  0  0  0  0
   10.4972   -3.8968   24.1589 C   0  0  0  0  0  0  0  0  0  0  0  0
    5.9260   -8.2736   16.5517 C   0  0  0  0  0  0  0  0  0  0  0  0
    3.8816   -9.1166   17.2493 C   0  0  0  0  0  0  0  0  0  0  0  0
   10.1297   -1.6575   23.2324 C   0  0  0  0  0  0  0  0  0  0  0  0
    9.4684   -1.6929   26.7263 F   0  0  0  0  0  0  0  0  0  0  0  0
    7.7963   -7.7906   17.9837 C   0  0  0  0  0  0  0  0  0  0  0  0
   10.5884   -3.0725   16.7902 O   0  0  0  0  0  0  0  0  0  0  0  0
   10.4323   -5.3494   20.3516 C   0  0  0  0  0  0  0  0  0  0  0  0
    7.1156   -7.5454   16.8218 C   0  0  0  0  0  0  0  0  0  0  0  0
   10.3885   -4.4388   19.2773 C   0  0  0  0  0  0  0  0  0  0  0  0
    4.5160   -9.3822   15.0841 C   0  0  0  0  0  0  0  0  0  0  0  0
  1  3  4  0
  1 24  4  0
  2  6  4  0
  2 15  4  0
  3  5  4  0
  3  6  4  0
  4 21  4  0
  4 29  4  0
  5 15  4  0
  5 28  1  0
  6 16  4  0
  7 18  4  0
  7 26  4  0
  8 18  1  0
  8 19  4  0
  8 22  4  0
  9 12  4  0
  9 19  4  0
 10 12  4  0
 10 22  4  0
 11 20  4  0
 11 21  4  0
 12 23  1  0
 13 20  4  0
 13 29  4  0
 14 17  4  0
 14 28  4  0
 15 25  2  0
 16 27  4  0
 17 18  4  0
 20 27  1  0
 24 27  4  0
 26 28  4  0
M  END
$$$$

 Created by Python create_sdf_string function

 29 33  0  0  0  0  0  0  0  0999 V2000
    8.8270   -7.0288   18.4251 C   0  0  0  0  0  0  0  0  0  0  0  0
    9.1576   -4.6236   15.8860 O   0  0  0  0  0  0  0  0  0  0  0  0
    9.1509   -5.9108   17.7177 C   0  0  0  0  0  0  0  0  0  0  0  0
    3.6373   -9.5349   16.0582 N   0  0  0  0  0  0  0  0  0  0  0  0
    9.9275   -4.8001   18.0438 N   0  0  0  0  0  0  0  0  0  0  0  0
    8.5908   -5.7425   16.4412 C   0  0  0  0  0  0  0  0  0  0  0  0
   10.5993   -4.8981   21.6068 C   0  0  0  0  0  0  0  0  0  0  0  0
   10.4258   -3.0106   23.0998 C   0  0  0  0  0  0  0  0  0  0  0  0
   10.2148   -3.4364   25.4200 C   0  0  0  0  0  0  0  0  0  0  0  0
    9.7853   -1.1840   24.4927 C   0  0  0  0  0  0  0  0  0  0  0  0
    5.0276   -8.5227   17.5352 C   0  0  0  0  0  0  0  0  0  0  0  0
    9.8187   -2.0895   25.5800 C   0  0  0  0  0  0  0  0  0  0  0  0
    5.6473   -8.7216   15.3158 C   0  0  0  0  0  0  0  0  0  0  0  0
   10.7581   -3.1233   19.4720 N   0  0  0  0  0  0  0  0  0  0  0  0
    9.9571   -4.0573   16.8866 C   0  0  0  0  0  0  0  0  0  0  0  0
    7.6213   -6.5618   16.0087 C   0  0  0  0  0  0  0  0  0  0  0  0
   10.8583   -2.6527   20.7222 C   0  0  0  0  0  0  0  0  0  0  0  0
   10.6412   -3.5089   21.7936 C   0  0  0  0  0  0  0  0  0  0  0  0
   10.4972   -3.8968   24.1589 C   0  0  0  0  0  0  0  0  0  0  0  0
    5.9260   -8.2736   16.5517 C   0  0  0  0  0  0  0  0  0  0  0  0
    3.8816   -9.1166   17.2493 C   0  0  0  0  0  0  0  0  0  0  0  0
   10.1297   -1.6575   23.2324 C   0  0  0  0  0  0  0  0  0  0  0  0
    9.4684   -1.6929   26.7263 F   0  0  0  0  0  0  0  0  0  0  0  0
    7.7963   -7.7906   17.9837 C   0  0  0  0  0  0  0  0  0  0  0  0
   10.5884   -3.0725   16.7902 O   0  0  0  0  0  0  0  0  0  0  0  0
   10.4323   -5.3494   20.3516 C   0  0  0  0  0  0  0  0  0  0  0  0
    7.1156   -7.5454   16.8218 C   0  0  0  0  0  0  0  0  0  0  0  0
   10.3885   -4.4388   19.2773 C   0  0  0  0  0  0  0  0  0  0  0  0
    4.5160   -9.3822   15.0841 C   0  0  0  0  0  0  0  0  0  0  0  0
  1  3  4  0
  1 24  4  0
  2  6  4  0
  2 15  4  0
  3  5  4  0
  3  6  4  0
  4 21  4  0
  4 29  4  0
  5 15  4  0
  5 28  1  0
  6 16  4  0
  7 18  4  0
  7 26  4  0
  8 18  1  0
  8 19  4  0
  8 22  4  0
  9 12  4  0
  9 19  4  0
 10 12  4  0
 10 22  4  0
 11 20  4  0
 11 21  4  0
 12 23  1  0
 13 20  4  0
 13 29  4  0
 14 17  4  0
 14 28  4  0
 15 25  2  0
 16 27  4  0
 17 18  4  0
 20 27  1  0
 24 27  4  0
 26 28  4  0
M  END
$$$$

 Created by Python create_sdf_string function

 29 33  0  0  0  0  0  0  0  0999 V2000
    8.8270   -7.0288   18.4251 C   0  0  0  0  0  0  0  0  0  0  0  0
    9.1576   -4.6236   15.8860 O   0  0  0  0  0  0  0  0  0  0  0  0
    9.1509   -5.9108   17.7177 C   0  0  0  0  0  0  0  0  0  0  0  0
    3.6373   -9.5349   16.0582 N   0  0  0  0  0  0  0  0  0  0  0  0
    9.9275   -4.8001   18.0438 N   0  0  0  0  0  0  0  0  0  0  0  0
    8.5908   -5.7425   16.4412 C   0  0  0  0  0  0  0  0  0  0  0  0
   10.5993   -4.8981   21.6068 C   0  0  0  0  0  0  0  0  0  0  0  0
   10.4258   -3.0106   23.0998 C   0  0  0  0  0  0  0  0  0  0  0  0
   10.2148   -3.4364   25.4200 C   0  0  0  0  0  0  0  0  0  0  0  0
    9.7853   -1.1840   24.4927 C   0  0  0  0  0  0  0  0  0  0  0  0
    5.0276   -8.5227   17.5352 C   0  0  0  0  0  0  0  0  0  0  0  0
    9.8187   -2.0895   25.5800 C   0  0  0  0  0  0  0  0  0  0  0  0
    5.6473   -8.7216   15.3158 C   0  0  0  0  0  0  0  0  0  0  0  0
   10.7581   -3.1233   19.4720 N   0  0  0  0  0  0  0  0  0  0  0  0
    9.9571   -4.0573   16.8866 C   0  0  0  0  0  0  0  0  0  0  0  0
    7.6213   -6.5618   16.0087 C   0  0  0  0  0  0  0  0  0  0  0  0
   10.8583   -2.6527   20.7222 C   0  0  0  0  0  0  0  0  0  0  0  0
   10.6412   -3.5089   21.7936 C   0  0  0  0  0  0  0  0  0  0  0  0
   10.4972   -3.8968   24.1589 C   0  0  0  0  0  0  0  0  0  0  0  0
    5.9260   -8.2736   16.5517 C   0  0  0  0  0  0  0  0  0  0  0  0
    3.8816   -9.1166   17.2493 C   0  0  0  0  0  0  0  0  0  0  0  0
   10.1297   -1.6575   23.2324 C   0  0  0  0  0  0  0  0  0  0  0  0
    9.4684   -1.6929   26.7263 F   0  0  0  0  0  0  0  0  0  0  0  0
    7.7963   -7.7906   17.9837 C   0  0  0  0  0  0  0  0  0  0  0  0
   10.5884   -3.0725   16.7902 O   0  0  0  0  0  0  0  0  0  0  0  0
   10.4323   -5.3494   20.3516 C   0  0  0  0  0  0  0  0  0  0  0  0
    7.1156   -7.5454   16.8218 C   0  0  0  0  0  0  0  0  0  0  0  0
   10.3885   -4.4388   19.2773 C   0  0  0  0  0  0  0  0  0  0  0  0
    4.5160   -9.3822   15.0841 C   0  0  0  0  0  0  0  0  0  0  0  0
  1  3  4  0
  1 24  4  0
  2  6  4  0
  2 15  4  0
  3  5  4  0
  3  6  4  0
  4 21  4  0
  4 29  4  0
  5 15  4  0
  5 28  1  0
  6 16  4  0
  7 18  4  0
  7 26  4  0
  8 18  1  0
  8 19  4  0
  8 22  4  0
  9 12  4  0
  9 19  4  0
 10 12  4  0
 10 22  4  0
 11 20  4  0
 11 21  4  0
 12 23  1  0
 13 20  4  0
 13 29  4  0
 14 17  4  0
 14 28  4  0
 15 25  2  0
 16 27  4  0
 17 18  4  0
 20 27  1  0
 24 27  4  0
 26 28  4  0
M  END
$$$$

 Created by Python create_sdf_string function

 29 33  0  0  0  0  0  0  0  0999 V2000
    8.8270   -7.0288   18.4251 C   0  0  0  0  0  0  0  0  0  0  0  0
    9.1576   -4.6236   15.8860 O   0  0  0  0  0  0  0  0  0  0  0  0
    9.1509   -5.9108   17.7177 C   0  0  0  0  0  0  0  0  0  0  0  0
    3.6373   -9.5349   16.0582 N   0  0  0  0  0  0  0  0  0  0  0  0
    9.9275   -4.8001   18.0438 N   0  0  0  0  0  0  0  0  0  0  0  0
    8.5908   -5.7425   16.4412 C   0  0  0  0  0  0  0  0  0  0  0  0
   10.5993   -4.8981   21.6068 C   0  0  0  0  0  0  0  0  0  0  0  0
   10.4258   -3.0106   23.0998 C   0  0  0  0  0  0  0  0  0  0  0  0
   10.2148   -3.4364   25.4200 C   0  0  0  0  0  0  0  0  0  0  0  0
    9.7853   -1.1840   24.4927 C   0  0  0  0  0  0  0  0  0  0  0  0
    5.0276   -8.5227   17.5352 C   0  0  0  0  0  0  0  0  0  0  0  0
    9.8187   -2.0895   25.5800 C   0  0  0  0  0  0  0  0  0  0  0  0
    5.6473   -8.7216   15.3158 C   0  0  0  0  0  0  0  0  0  0  0  0
   10.7581   -3.1233   19.4720 N   0  0  0  0  0  0  0  0  0  0  0  0
    9.9571   -4.0573   16.8866 C   0  0  0  0  0  0  0  0  0  0  0  0
    7.6213   -6.5618   16.0087 C   0  0  0  0  0  0  0  0  0  0  0  0
   10.8583   -2.6527   20.7222 C   0  0  0  0  0  0  0  0  0  0  0  0
   10.6412   -3.5089   21.7936 C   0  0  0  0  0  0  0  0  0  0  0  0
   10.4972   -3.8968   24.1589 C   0  0  0  0  0  0  0  0  0  0  0  0
    5.9260   -8.2736   16.5517 C   0  0  0  0  0  0  0  0  0  0  0  0
    3.8816   -9.1166   17.2493 C   0  0  0  0  0  0  0  0  0  0  0  0
   10.1297   -1.6575   23.2324 C   0  0  0  0  0  0  0  0  0  0  0  0
    9.4684   -1.6929   26.7263 F   0  0  0  0  0  0  0  0  0  0  0  0
    7.7963   -7.7906   17.9837 C   0  0  0  0  0  0  0  0  0  0  0  0
   10.5884   -3.0725   16.7902 O   0  0  0  0  0  0  0  0  0  0  0  0
   10.4323   -5.3494   20.3516 C   0  0  0  0  0  0  0  0  0  0  0  0
    7.1156   -7.5454   16.8218 C   0  0  0  0  0  0  0  0  0  0  0  0
   10.3885   -4.4388   19.2773 C   0  0  0  0  0  0  0  0  0  0  0  0
    4.5160   -9.3822   15.0841 C   0  0  0  0  0  0  0  0  0  0  0  0
  1  3  4  0
  1 24  4  0
  2  6  4  0
  2 15  4  0
  3  5  4  0
  3  6  4  0
  4 21  4  0
  4 29  4  0
  5 15  4  0
  5 28  1  0
  6 16  4  0
  7 18  4  0
  7 26  4  0
  8 18  1  0
  8 19  4  0
  8 22  4  0
  9 12  4  0
  9 19  4  0
 10 12  4  0
 10 22  4  0
 11 20  4  0
 11 21  4  0
 12 23  1  0
 13 20  4  0
 13 29  4  0
 14 17  4  0
 14 28  4  0
 15 25  2  0
 16 27  4  0
 17 18  4  0
 20 27  1  0
 24 27  4  0
 26 28  4  0
M  END
$$$$

 Created by Python create_sdf_string function

 29 33  0  0  0  0  0  0  0  0999 V2000
    8.8270   -7.0288   18.4251 C   0  0  0  0  0  0  0  0  0  0  0  0
    9.1576   -4.6236   15.8860 O   0  0  0  0  0  0  0  0  0  0  0  0
    9.1509   -5.9108   17.7177 C   0  0  0  0  0  0  0  0  0  0  0  0
    3.6373   -9.5349   16.0582 N   0  0  0  0  0  0  0  0  0  0  0  0
    9.9275   -4.8001   18.0438 N   0  0  0  0  0  0  0  0  0  0  0  0
    8.5908   -5.7425   16.4412 C   0  0  0  0  0  0  0  0  0  0  0  0
   10.5993   -4.8981   21.6068 C   0  0  0  0  0  0  0  0  0  0  0  0
   10.4258   -3.0106   23.0998 C   0  0  0  0  0  0  0  0  0  0  0  0
   10.2148   -3.4364   25.4200 C   0  0  0  0  0  0  0  0  0  0  0  0
    9.7853   -1.1840   24.4927 C   0  0  0  0  0  0  0  0  0  0  0  0
    5.0276   -8.5227   17.5352 C   0  0  0  0  0  0  0  0  0  0  0  0
    9.8187   -2.0895   25.5800 C   0  0  0  0  0  0  0  0  0  0  0  0
    5.6473   -8.7216   15.3158 C   0  0  0  0  0  0  0  0  0  0  0  0
   10.7581   -3.1233   19.4720 N   0  0  0  0  0  0  0  0  0  0  0  0
    9.9571   -4.0573   16.8866 C   0  0  0  0  0  0  0  0  0  0  0  0
    7.6213   -6.5618   16.0087 C   0  0  0  0  0  0  0  0  0  0  0  0
   10.8583   -2.6527   20.7222 C   0  0  0  0  0  0  0  0  0  0  0  0
   10.6412   -3.5089   21.7936 C   0  0  0  0  0  0  0  0  0  0  0  0
   10.4972   -3.8968   24.1589 C   0  0  0  0  0  0  0  0  0  0  0  0
    5.9260   -8.2736   16.5517 C   0  0  0  0  0  0  0  0  0  0  0  0
    3.8816   -9.1166   17.2493 C   0  0  0  0  0  0  0  0  0  0  0  0
   10.1297   -1.6575   23.2324 C   0  0  0  0  0  0  0  0  0  0  0  0
    9.4684   -1.6929   26.7263 F   0  0  0  0  0  0  0  0  0  0  0  0
    7.7963   -7.7906   17.9837 C   0  0  0  0  0  0  0  0  0  0  0  0
   10.5884   -3.0725   16.7902 O   0  0  0  0  0  0  0  0  0  0  0  0
   10.4323   -5.3494   20.3516 C   0  0  0  0  0  0  0  0  0  0  0  0
    7.1156   -7.5454   16.8218 C   0  0  0  0  0  0  0  0  0  0  0  0
   10.3885   -4.4388   19.2773 C   0  0  0  0  0  0  0  0  0  0  0  0
    4.5160   -9.3822   15.0841 C   0  0  0  0  0  0  0  0  0  0  0  0
  1  3  4  0
  1 24  4  0
  2  6  4  0
  2 15  4  0
  3  5  4  0
  3  6  4  0
  4 21  4  0
  4 29  4  0
  5 15  4  0
  5 28  1  0
  6 16  4  0
  7 18  4  0
  7 26  4  0
  8 18  1  0
  8 19  4  0
  8 22  4  0
  9 12  4  0
  9 19  4  0
 10 12  4  0
 10 22  4  0
 11 20  4  0
 11 21  4  0
 12 23  1  0
 13 20  4  0
 13 29  4  0
 14 17  4  0
 14 28  4  0
 15 25  2  0
 16 27  4  0
 17 18  4  0
 20 27  1  0
 24 27  4  0
 26 28  4  0
M  END
$$$$

 Created by Python create_sdf_string function

 29 33  0  0  0  0  0  0  0  0999 V2000
    8.8270   -7.0288   18.4251 C   0  0  0  0  0  0  0  0  0  0  0  0
    9.1576   -4.6236   15.8860 O   0  0  0  0  0  0  0  0  0  0  0  0
    9.1509   -5.9108   17.7177 C   0  0  0  0  0  0  0  0  0  0  0  0
    3.6373   -9.5349   16.0582 N   0  0  0  0  0  0  0  0  0  0  0  0
    9.9275   -4.8001   18.0438 N   0  0  0  0  0  0  0  0  0  0  0  0
    8.5908   -5.7425   16.4412 C   0  0  0  0  0  0  0  0  0  0  0  0
   10.5993   -4.8981   21.6068 C   0  0  0  0  0  0  0  0  0  0  0  0
   10.4258   -3.0106   23.0998 C   0  0  0  0  0  0  0  0  0  0  0  0
   10.2148   -3.4364   25.4200 C   0  0  0  0  0  0  0  0  0  0  0  0
    9.7853   -1.1840   24.4927 C   0  0  0  0  0  0  0  0  0  0  0  0
    5.0276   -8.5227   17.5352 C   0  0  0  0  0  0  0  0  0  0  0  0
    9.8187   -2.0895   25.5800 C   0  0  0  0  0  0  0  0  0  0  0  0
    5.6473   -8.7216   15.3158 C   0  0  0  0  0  0  0  0  0  0  0  0
   10.7581   -3.1233   19.4720 N   0  0  0  0  0  0  0  0  0  0  0  0
    9.9571   -4.0573   16.8866 C   0  0  0  0  0  0  0  0  0  0  0  0
    7.6213   -6.5618   16.0087 C   0  0  0  0  0  0  0  0  0  0  0  0
   10.8583   -2.6527   20.7222 C   0  0  0  0  0  0  0  0  0  0  0  0
   10.6412   -3.5089   21.7936 C   0  0  0  0  0  0  0  0  0  0  0  0
   10.4972   -3.8968   24.1589 C   0  0  0  0  0  0  0  0  0  0  0  0
    5.9260   -8.2736   16.5517 C   0  0  0  0  0  0  0  0  0  0  0  0
    3.8816   -9.1166   17.2493 C   0  0  0  0  0  0  0  0  0  0  0  0
   10.1297   -1.6575   23.2324 C   0  0  0  0  0  0  0  0  0  0  0  0
    9.4684   -1.6929   26.7263 F   0  0  0  0  0  0  0  0  0  0  0  0
    7.7963   -7.7906   17.9837 C   0  0  0  0  0  0  0  0  0  0  0  0
   10.5884   -3.0725   16.7902 O   0  0  0  0  0  0  0  0  0  0  0  0
   10.4323   -5.3494   20.3516 C   0  0  0  0  0  0  0  0  0  0  0  0
    7.1156   -7.5454   16.8218 C   0  0  0  0  0  0  0  0  0  0  0  0
   10.3885   -4.4388   19.2773 C   0  0  0  0  0  0  0  0  0  0  0  0
    4.5160   -9.3822   15.0841 C   0  0  0  0  0  0  0  0  0  0  0  0
  1  3  4  0
  1 24  4  0
  2  6  4  0
  2 15  4  0
  3  5  4  0
  3  6  4  0
  4 21  4  0
  4 29  4  0
  5 15  4  0
  5 28  1  0
  6 16  4  0
  7 18  4  0
  7 26  4  0
  8 18  1  0
  8 19  4  0
  8 22  4  0
  9 12  4  0
  9 19  4  0
 10 12  4  0
 10 22  4  0
 11 20  4  0
 11 21  4  0
 12 23  1  0
 13 20  4  0
 13 29  4  0
 14 17  4  0
 14 28  4  0
 15 25  2  0
 16 27  4  0
 17 18  4  0
 20 27  1  0
 24 27  4  0
 26 28  4  0
M  END
$$$$

 Created by Python create_sdf_string function

 29 33  0  0  0  0  0  0  0  0999 V2000
    8.8270   -7.0288   18.4251 C   0  0  0  0  0  0  0  0  0  0  0  0
    9.1576   -4.6236   15.8860 O   0  0  0  0  0  0  0  0  0  0  0  0
    9.1509   -5.9108   17.7177 C   0  0  0  0  0  0  0  0  0  0  0  0
    3.6373   -9.5349   16.0582 N   0  0  0  0  0  0  0  0  0  0  0  0
    9.9275   -4.8001   18.0438 N   0  0  0  0  0  0  0  0  0  0  0  0
    8.5908   -5.7425   16.4412 C   0  0  0  0  0  0  0  0  0  0  0  0
   10.5993   -4.8981   21.6068 C   0  0  0  0  0  0  0  0  0  0  0  0
   10.4258   -3.0106   23.0998 C   0  0  0  0  0  0  0  0  0  0  0  0
   10.2148   -3.4364   25.4200 C   0  0  0  0  0  0  0  0  0  0  0  0
    9.7853   -1.1840   24.4927 C   0  0  0  0  0  0  0  0  0  0  0  0
    5.0276   -8.5227   17.5352 C   0  0  0  0  0  0  0  0  0  0  0  0
    9.8187   -2.0895   25.5800 C   0  0  0  0  0  0  0  0  0  0  0  0
    5.6473   -8.7216   15.3158 C   0  0  0  0  0  0  0  0  0  0  0  0
   10.7581   -3.1233   19.4720 N   0  0  0  0  0  0  0  0  0  0  0  0
    9.9571   -4.0573   16.8866 C   0  0  0  0  0  0  0  0  0  0  0  0
    7.6213   -6.5618   16.0087 C   0  0  0  0  0  0  0  0  0  0  0  0
   10.8583   -2.6527   20.7222 C   0  0  0  0  0  0  0  0  0  0  0  0
   10.6412   -3.5089   21.7936 C   0  0  0  0  0  0  0  0  0  0  0  0
   10.4972   -3.8968   24.1589 C   0  0  0  0  0  0  0  0  0  0  0  0
    5.9260   -8.2736   16.5517 C   0  0  0  0  0  0  0  0  0  0  0  0
    3.8816   -9.1166   17.2493 C   0  0  0  0  0  0  0  0  0  0  0  0
   10.1297   -1.6575   23.2324 C   0  0  0  0  0  0  0  0  0  0  0  0
    9.4684   -1.6929   26.7263 F   0  0  0  0  0  0  0  0  0  0  0  0
    7.7963   -7.7906   17.9837 C   0  0  0  0  0  0  0  0  0  0  0  0
   10.5884   -3.0725   16.7902 O   0  0  0  0  0  0  0  0  0  0  0  0
   10.4323   -5.3494   20.3516 C   0  0  0  0  0  0  0  0  0  0  0  0
    7.1156   -7.5454   16.8218 C   0  0  0  0  0  0  0  0  0  0  0  0
   10.3885   -4.4388   19.2773 C   0  0  0  0  0  0  0  0  0  0  0  0
    4.5160   -9.3822   15.0841 C   0  0  0  0  0  0  0  0  0  0  0  0
  1  3  4  0
  1 24  4  0
  2  6  4  0
  2 15  4  0
  3  5  4  0
  3  6  4  0
  4 21  4  0
  4 29  4  0
  5 15  4  0
  5 28  1  0
  6 16  4  0
  7 18  4  0
  7 26  4  0
  8 18  1  0
  8 19  4  0
  8 22  4  0
  9 12  4  0
  9 19  4  0
 10 12  4  0
 10 22  4  0
 11 20  4  0
 11 21  4  0
 12 23  1  0
 13 20  4  0
 13 29  4  0
 14 17  4  0
 14 28  4  0
 15 25  2  0
 16 27  4  0
 17 18  4  0
 20 27  1  0
 24 27  4  0
 26 28  4  0
M  END
$$$$

 Created by Python create_sdf_string function

 29 33  0  0  0  0  0  0  0  0999 V2000
    8.8270   -7.0288   18.4251 C   0  0  0  0  0  0  0  0  0  0  0  0
    9.1576   -4.6236   15.8860 O   0  0  0  0  0  0  0  0  0  0  0  0
    9.1509   -5.9108   17.7177 C   0  0  0  0  0  0  0  0  0  0  0  0
    3.6373   -9.5349   16.0582 N   0  0  0  0  0  0  0  0  0  0  0  0
    9.9275   -4.8001   18.0438 N   0  0  0  0  0  0  0  0  0  0  0  0
    8.5908   -5.7425   16.4412 C   0  0  0  0  0  0  0  0  0  0  0  0
   10.5993   -4.8981   21.6068 C   0  0  0  0  0  0  0  0  0  0  0  0
   10.4258   -3.0106   23.0998 C   0  0  0  0  0  0  0  0  0  0  0  0
   10.2148   -3.4364   25.4200 C   0  0  0  0  0  0  0  0  0  0  0  0
    9.7853   -1.1840   24.4927 C   0  0  0  0  0  0  0  0  0  0  0  0
    5.0276   -8.5227   17.5352 C   0  0  0  0  0  0  0  0  0  0  0  0
    9.8187   -2.0895   25.5800 C   0  0  0  0  0  0  0  0  0  0  0  0
    5.6473   -8.7216   15.3158 C   0  0  0  0  0  0  0  0  0  0  0  0
   10.7581   -3.1233   19.4720 N   0  0  0  0  0  0  0  0  0  0  0  0
    9.9571   -4.0573   16.8866 C   0  0  0  0  0  0  0  0  0  0  0  0
    7.6213   -6.5618   16.0087 C   0  0  0  0  0  0  0  0  0  0  0  0
   10.8583   -2.6527   20.7222 C   0  0  0  0  0  0  0  0  0  0  0  0
   10.6412   -3.5089   21.7936 C   0  0  0  0  0  0  0  0  0  0  0  0
   10.4972   -3.8968   24.1589 C   0  0  0  0  0  0  0  0  0  0  0  0
    5.9260   -8.2736   16.5517 C   0  0  0  0  0  0  0  0  0  0  0  0
    3.8816   -9.1166   17.2493 C   0  0  0  0  0  0  0  0  0  0  0  0
   10.1297   -1.6575   23.2324 C   0  0  0  0  0  0  0  0  0  0  0  0
    9.4684   -1.6929   26.7263 F   0  0  0  0  0  0  0  0  0  0  0  0
    7.7963   -7.7906   17.9837 C   0  0  0  0  0  0  0  0  0  0  0  0
   10.5884   -3.0725   16.7902 O   0  0  0  0  0  0  0  0  0  0  0  0
   10.4323   -5.3494   20.3516 C   0  0  0  0  0  0  0  0  0  0  0  0
    7.1156   -7.5454   16.8218 C   0  0  0  0  0  0  0  0  0  0  0  0
   10.3885   -4.4388   19.2773 C   0  0  0  0  0  0  0  0  0  0  0  0
    4.5160   -9.3822   15.0841 C   0  0  0  0  0  0  0  0  0  0  0  0
  1  3  4  0
  1 24  4  0
  2  6  4  0
  2 15  4  0
  3  5  4  0
  3  6  4  0
  4 21  4  0
  4 29  4  0
  5 15  4  0
  5 28  1  0
  6 16  4  0
  7 18  4  0
  7 26  4  0
  8 18  1  0
  8 19  4  0
  8 22  4  0
  9 12  4  0
  9 19  4  0
 10 12  4  0
 10 22  4  0
 11 20  4  0
 11 21  4  0
 12 23  1  0
 13 20  4  0
 13 29  4  0
 14 17  4  0
 14 28  4  0
 15 25  2  0
 16 27  4  0
 17 18  4  0
 20 27  1  0
 24 27  4  0
 26 28  4  0
M  END
$$$$

 Created by Python create_sdf_string function

 29 33  0  0  0  0  0  0  0  0999 V2000
    8.8270   -7.0288   18.4251 C   0  0  0  0  0  0  0  0  0  0  0  0
    9.1576   -4.6236   15.8860 O   0  0  0  0  0  0  0  0  0  0  0  0
    9.1509   -5.9108   17.7177 C   0  0  0  0  0  0  0  0  0  0  0  0
    3.6373   -9.5349   16.0582 N   0  0  0  0  0  0  0  0  0  0  0  0
    9.9275   -4.8001   18.0438 N   0  0  0  0  0  0  0  0  0  0  0  0
    8.5908   -5.7425   16.4412 C   0  0  0  0  0  0  0  0  0  0  0  0
   10.5993   -4.8981   21.6068 C   0  0  0  0  0  0  0  0  0  0  0  0
   10.4258   -3.0106   23.0998 C   0  0  0  0  0  0  0  0  0  0  0  0
   10.2148   -3.4364   25.4200 C   0  0  0  0  0  0  0  0  0  0  0  0
    9.7853   -1.1840   24.4927 C   0  0  0  0  0  0  0  0  0  0  0  0
    5.0276   -8.5227   17.5352 C   0  0  0  0  0  0  0  0  0  0  0  0
    9.8187   -2.0895   25.5800 C   0  0  0  0  0  0  0  0  0  0  0  0
    5.6473   -8.7216   15.3158 C   0  0  0  0  0  0  0  0  0  0  0  0
   10.7581   -3.1233   19.4720 N   0  0  0  0  0  0  0  0  0  0  0  0
    9.9571   -4.0573   16.8866 C   0  0  0  0  0  0  0  0  0  0  0  0
    7.6213   -6.5618   16.0087 C   0  0  0  0  0  0  0  0  0  0  0  0
   10.8583   -2.6527   20.7222 C   0  0  0  0  0  0  0  0  0  0  0  0
   10.6412   -3.5089   21.7936 C   0  0  0  0  0  0  0  0  0  0  0  0
   10.4972   -3.8968   24.1589 C   0  0  0  0  0  0  0  0  0  0  0  0
    5.9260   -8.2736   16.5517 C   0  0  0  0  0  0  0  0  0  0  0  0
    3.8816   -9.1166   17.2493 C   0  0  0  0  0  0  0  0  0  0  0  0
   10.1297   -1.6575   23.2324 C   0  0  0  0  0  0  0  0  0  0  0  0
    9.4684   -1.6929   26.7263 F   0  0  0  0  0  0  0  0  0  0  0  0
    7.7963   -7.7906   17.9837 C   0  0  0  0  0  0  0  0  0  0  0  0
   10.5884   -3.0725   16.7902 O   0  0  0  0  0  0  0  0  0  0  0  0
   10.4323   -5.3494   20.3516 C   0  0  0  0  0  0  0  0  0  0  0  0
    7.1156   -7.5454   16.8218 C   0  0  0  0  0  0  0  0  0  0  0  0
   10.3885   -4.4388   19.2773 C   0  0  0  0  0  0  0  0  0  0  0  0
    4.5160   -9.3822   15.0841 C   0  0  0  0  0  0  0  0  0  0  0  0
  1  3  4  0
  1 24  4  0
  2  6  4  0
  2 15  4  0
  3  5  4  0
  3  6  4  0
  4 21  4  0
  4 29  4  0
  5 15  4  0
  5 28  1  0
  6 16  4  0
  7 18  4  0
  7 26  4  0
  8 18  1  0
  8 19  4  0
  8 22  4  0
  9 12  4  0
  9 19  4  0
 10 12  4  0
 10 22  4  0
 11 20  4  0
 11 21  4  0
 12 23  1  0
 13 20  4  0
 13 29  4  0
 14 17  4  0
 14 28  4  0
 15 25  2  0
 16 27  4  0
 17 18  4  0
 20 27  1  0
 24 27  4  0
 26 28  4  0
M  END
$$$$

 Created by Python create_sdf_string function

 29 33  0  0  0  0  0  0  0  0999 V2000
    8.8270   -7.0288   18.4251 C   0  0  0  0  0  0  0  0  0  0  0  0
    9.1576   -4.6236   15.8860 O   0  0  0  0  0  0  0  0  0  0  0  0
    9.1509   -5.9108   17.7177 C   0  0  0  0  0  0  0  0  0  0  0  0
    3.6373   -9.5349   16.0582 N   0  0  0  0  0  0  0  0  0  0  0  0
    9.9275   -4.8001   18.0438 N   0  0  0  0  0  0  0  0  0  0  0  0
    8.5908   -5.7425   16.4412 C   0  0  0  0  0  0  0  0  0  0  0  0
   10.5993   -4.8981   21.6068 C   0  0  0  0  0  0  0  0  0  0  0  0
   10.4258   -3.0106   23.0998 C   0  0  0  0  0  0  0  0  0  0  0  0
   10.2148   -3.4364   25.4200 C   0  0  0  0  0  0  0  0  0  0  0  0
    9.7853   -1.1840   24.4927 C   0  0  0  0  0  0  0  0  0  0  0  0
    5.0276   -8.5227   17.5352 C   0  0  0  0  0  0  0  0  0  0  0  0
    9.8187   -2.0895   25.5800 C   0  0  0  0  0  0  0  0  0  0  0  0
    5.6473   -8.7216   15.3158 C   0  0  0  0  0  0  0  0  0  0  0  0
   10.7581   -3.1233   19.4720 N   0  0  0  0  0  0  0  0  0  0  0  0
    9.9571   -4.0573   16.8866 C   0  0  0  0  0  0  0  0  0  0  0  0
    7.6213   -6.5618   16.0087 C   0  0  0  0  0  0  0  0  0  0  0  0
   10.8583   -2.6527   20.7222 C   0  0  0  0  0  0  0  0  0  0  0  0
   10.6412   -3.5089   21.7936 C   0  0  0  0  0  0  0  0  0  0  0  0
   10.4972   -3.8968   24.1589 C   0  0  0  0  0  0  0  0  0  0  0  0
    5.9260   -8.2736   16.5517 C   0  0  0  0  0  0  0  0  0  0  0  0
    3.8816   -9.1166   17.2493 C   0  0  0  0  0  0  0  0  0  0  0  0
   10.1297   -1.6575   23.2324 C   0  0  0  0  0  0  0  0  0  0  0  0
    9.4684   -1.6929   26.7263 F   0  0  0  0  0  0  0  0  0  0  0  0
    7.7963   -7.7906   17.9837 C   0  0  0  0  0  0  0  0  0  0  0  0
   10.5884   -3.0725   16.7902 O   0  0  0  0  0  0  0  0  0  0  0  0
   10.4323   -5.3494   20.3516 C   0  0  0  0  0  0  0  0  0  0  0  0
    7.1156   -7.5454   16.8218 C   0  0  0  0  0  0  0  0  0  0  0  0
   10.3885   -4.4388   19.2773 C   0  0  0  0  0  0  0  0  0  0  0  0
    4.5160   -9.3822   15.0841 C   0  0  0  0  0  0  0  0  0  0  0  0
  1  3  4  0
  1 24  4  0
  2  6  4  0
  2 15  4  0
  3  5  4  0
  3  6  4  0
  4 21  4  0
  4 29  4  0
  5 15  4  0
  5 28  1  0
  6 16  4  0
  7 18  4  0
  7 26  4  0
  8 18  1  0
  8 19  4  0
  8 22  4  0
  9 12  4  0
  9 19  4  0
 10 12  4  0
 10 22  4  0
 11 20  4  0
 11 21  4  0
 12 23  1  0
 13 20  4  0
 13 29  4  0
 14 17  4  0
 14 28  4  0
 15 25  2  0
 16 27  4  0
 17 18  4  0
 20 27  1  0
 24 27  4  0
 26 28  4  0
M  END
$$$$

 Created by Python create_sdf_string function

 29 33  0  0  0  0  0  0  0  0999 V2000
    8.8270   -7.0288   18.4251 C   0  0  0  0  0  0  0  0  0  0  0  0
    9.1576   -4.6236   15.8860 O   0  0  0  0  0  0  0  0  0  0  0  0
    9.1509   -5.9108   17.7177 C   0  0  0  0  0  0  0  0  0  0  0  0
    3.6373   -9.5349   16.0582 N   0  0  0  0  0  0  0  0  0  0  0  0
    9.9275   -4.8001   18.0438 N   0  0  0  0  0  0  0  0  0  0  0  0
    8.5908   -5.7425   16.4412 C   0  0  0  0  0  0  0  0  0  0  0  0
   10.5993   -4.8981   21.6068 C   0  0  0  0  0  0  0  0  0  0  0  0
   10.4258   -3.0106   23.0998 C   0  0  0  0  0  0  0  0  0  0  0  0
   10.2148   -3.4364   25.4200 C   0  0  0  0  0  0  0  0  0  0  0  0
    9.7853   -1.1840   24.4927 C   0  0  0  0  0  0  0  0  0  0  0  0
    5.0276   -8.5227   17.5352 C   0  0  0  0  0  0  0  0  0  0  0  0
    9.8187   -2.0895   25.5800 C   0  0  0  0  0  0  0  0  0  0  0  0
    5.6473   -8.7216   15.3158 C   0  0  0  0  0  0  0  0  0  0  0  0
   10.7581   -3.1233   19.4720 N   0  0  0  0  0  0  0  0  0  0  0  0
    9.9571   -4.0573   16.8866 C   0  0  0  0  0  0  0  0  0  0  0  0
    7.6213   -6.5618   16.0087 C   0  0  0  0  0  0  0  0  0  0  0  0
   10.8583   -2.6527   20.7222 C   0  0  0  0  0  0  0  0  0  0  0  0
   10.6412   -3.5089   21.7936 C   0  0  0  0  0  0  0  0  0  0  0  0
   10.4972   -3.8968   24.1589 C   0  0  0  0  0  0  0  0  0  0  0  0
    5.9260   -8.2736   16.5517 C   0  0  0  0  0  0  0  0  0  0  0  0
    3.8816   -9.1166   17.2493 C   0  0  0  0  0  0  0  0  0  0  0  0
   10.1297   -1.6575   23.2324 C   0  0  0  0  0  0  0  0  0  0  0  0
    9.4684   -1.6929   26.7263 F   0  0  0  0  0  0  0  0  0  0  0  0
    7.7963   -7.7906   17.9837 C   0  0  0  0  0  0  0  0  0  0  0  0
   10.5884   -3.0725   16.7902 O   0  0  0  0  0  0  0  0  0  0  0  0
   10.4323   -5.3494   20.3516 C   0  0  0  0  0  0  0  0  0  0  0  0
    7.1156   -7.5454   16.8218 C   0  0  0  0  0  0  0  0  0  0  0  0
   10.3885   -4.4388   19.2773 C   0  0  0  0  0  0  0  0  0  0  0  0
    4.5160   -9.3822   15.0841 C   0  0  0  0  0  0  0  0  0  0  0  0
  1  3  4  0
  1 24  4  0
  2  6  4  0
  2 15  4  0
  3  5  4  0
  3  6  4  0
  4 21  4  0
  4 29  4  0
  5 15  4  0
  5 28  1  0
  6 16  4  0
  7 18  4  0
  7 26  4  0
  8 18  1  0
  8 19  4  0
  8 22  4  0
  9 12  4  0
  9 19  4  0
 10 12  4  0
 10 22  4  0
 11 20  4  0
 11 21  4  0
 12 23  1  0
 13 20  4  0
 13 29  4  0
 14 17  4  0
 14 28  4  0
 15 25  2  0
 16 27  4  0
 17 18  4  0
 20 27  1  0
 24 27  4  0
 26 28  4  0
M  END
$$$$

 Created by Python create_sdf_string function

 29 33  0  0  0  0  0  0  0  0999 V2000
    8.8270   -7.0288   18.4251 C   0  0  0  0  0  0  0  0  0  0  0  0
    9.1576   -4.6236   15.8860 O   0  0  0  0  0  0  0  0  0  0  0  0
    9.1509   -5.9108   17.7177 C   0  0  0  0  0  0  0  0  0  0  0  0
    3.6373   -9.5349   16.0582 N   0  0  0  0  0  0  0  0  0  0  0  0
    9.9275   -4.8001   18.0438 N   0  0  0  0  0  0  0  0  0  0  0  0
    8.5908   -5.7425   16.4412 C   0  0  0  0  0  0  0  0  0  0  0  0
   10.5993   -4.8981   21.6068 C   0  0  0  0  0  0  0  0  0  0  0  0
   10.4258   -3.0106   23.0998 C   0  0  0  0  0  0  0  0  0  0  0  0
   10.2148   -3.4364   25.4200 C   0  0  0  0  0  0  0  0  0  0  0  0
    9.7853   -1.1840   24.4927 C   0  0  0  0  0  0  0  0  0  0  0  0
    5.0276   -8.5227   17.5352 C   0  0  0  0  0  0  0  0  0  0  0  0
    9.8187   -2.0895   25.5800 C   0  0  0  0  0  0  0  0  0  0  0  0
    5.6473   -8.7216   15.3158 C   0  0  0  0  0  0  0  0  0  0  0  0
   10.7581   -3.1233   19.4720 N   0  0  0  0  0  0  0  0  0  0  0  0
    9.9571   -4.0573   16.8866 C   0  0  0  0  0  0  0  0  0  0  0  0
    7.6213   -6.5618   16.0087 C   0  0  0  0  0  0  0  0  0  0  0  0
   10.8583   -2.6527   20.7222 C   0  0  0  0  0  0  0  0  0  0  0  0
   10.6412   -3.5089   21.7936 C   0  0  0  0  0  0  0  0  0  0  0  0
   10.4972   -3.8968   24.1589 C   0  0  0  0  0  0  0  0  0  0  0  0
    5.9260   -8.2736   16.5517 C   0  0  0  0  0  0  0  0  0  0  0  0
    3.8816   -9.1166   17.2493 C   0  0  0  0  0  0  0  0  0  0  0  0
   10.1297   -1.6575   23.2324 C   0  0  0  0  0  0  0  0  0  0  0  0
    9.4684   -1.6929   26.7263 F   0  0  0  0  0  0  0  0  0  0  0  0
    7.7963   -7.7906   17.9837 C   0  0  0  0  0  0  0  0  0  0  0  0
   10.5884   -3.0725   16.7902 O   0  0  0  0  0  0  0  0  0  0  0  0
   10.4323   -5.3494   20.3516 C   0  0  0  0  0  0  0  0  0  0  0  0
    7.1156   -7.5454   16.8218 C   0  0  0  0  0  0  0  0  0  0  0  0
   10.3885   -4.4388   19.2773 C   0  0  0  0  0  0  0  0  0  0  0  0
    4.5160   -9.3822   15.0841 C   0  0  0  0  0  0  0  0  0  0  0  0
  1  3  4  0
  1 24  4  0
  2  6  4  0
  2 15  4  0
  3  5  4  0
  3  6  4  0
  4 21  4  0
  4 29  4  0
  5 15  4  0
  5 28  1  0
  6 16  4  0
  7 18  4  0
  7 26  4  0
  8 18  1  0
  8 19  4  0
  8 22  4  0
  9 12  4  0
  9 19  4  0
 10 12  4  0
 10 22  4  0
 11 20  4  0
 11 21  4  0
 12 23  1  0
 13 20  4  0
 13 29  4  0
 14 17  4  0
 14 28  4  0
 15 25  2  0
 16 27  4  0
 17 18  4  0
 20 27  1  0
 24 27  4  0
 26 28  4  0
M  END
$$$$

 Created by Python create_sdf_string function

 29 33  0  0  0  0  0  0  0  0999 V2000
    8.8270   -7.0288   18.4251 C   0  0  0  0  0  0  0  0  0  0  0  0
    9.1576   -4.6236   15.8860 O   0  0  0  0  0  0  0  0  0  0  0  0
    9.1509   -5.9108   17.7177 C   0  0  0  0  0  0  0  0  0  0  0  0
    3.6373   -9.5349   16.0582 N   0  0  0  0  0  0  0  0  0  0  0  0
    9.9275   -4.8001   18.0438 N   0  0  0  0  0  0  0  0  0  0  0  0
    8.5908   -5.7425   16.4412 C   0  0  0  0  0  0  0  0  0  0  0  0
   10.5993   -4.8981   21.6068 C   0  0  0  0  0  0  0  0  0  0  0  0
   10.4258   -3.0106   23.0998 C   0  0  0  0  0  0  0  0  0  0  0  0
   10.2148   -3.4364   25.4200 C   0  0  0  0  0  0  0  0  0  0  0  0
    9.7853   -1.1840   24.4927 C   0  0  0  0  0  0  0  0  0  0  0  0
    5.0276   -8.5227   17.5352 C   0  0  0  0  0  0  0  0  0  0  0  0
    9.8187   -2.0895   25.5800 C   0  0  0  0  0  0  0  0  0  0  0  0
    5.6473   -8.7216   15.3158 C   0  0  0  0  0  0  0  0  0  0  0  0
   10.7581   -3.1233   19.4720 N   0  0  0  0  0  0  0  0  0  0  0  0
    9.9571   -4.0573   16.8866 C   0  0  0  0  0  0  0  0  0  0  0  0
    7.6213   -6.5618   16.0087 C   0  0  0  0  0  0  0  0  0  0  0  0
   10.8583   -2.6527   20.7222 C   0  0  0  0  0  0  0  0  0  0  0  0
   10.6412   -3.5089   21.7936 C   0  0  0  0  0  0  0  0  0  0  0  0
   10.4972   -3.8968   24.1589 C   0  0  0  0  0  0  0  0  0  0  0  0
    5.9260   -8.2736   16.5517 C   0  0  0  0  0  0  0  0  0  0  0  0
    3.8816   -9.1166   17.2493 C   0  0  0  0  0  0  0  0  0  0  0  0
   10.1297   -1.6575   23.2324 C   0  0  0  0  0  0  0  0  0  0  0  0
    9.4684   -1.6929   26.7263 F   0  0  0  0  0  0  0  0  0  0  0  0
    7.7963   -7.7906   17.9837 C   0  0  0  0  0  0  0  0  0  0  0  0
   10.5884   -3.0725   16.7902 O   0  0  0  0  0  0  0  0  0  0  0  0
   10.4323   -5.3494   20.3516 C   0  0  0  0  0  0  0  0  0  0  0  0
    7.1156   -7.5454   16.8218 C   0  0  0  0  0  0  0  0  0  0  0  0
   10.3885   -4.4388   19.2773 C   0  0  0  0  0  0  0  0  0  0  0  0
    4.5160   -9.3822   15.0841 C   0  0  0  0  0  0  0  0  0  0  0  0
  1  3  4  0
  1 24  4  0
  2  6  4  0
  2 15  4  0
  3  5  4  0
  3  6  4  0
  4 21  4  0
  4 29  4  0
  5 15  4  0
  5 28  1  0
  6 16  4  0
  7 18  4  0
  7 26  4  0
  8 18  1  0
  8 19  4  0
  8 22  4  0
  9 12  4  0
  9 19  4  0
 10 12  4  0
 10 22  4  0
 11 20  4  0
 11 21  4  0
 12 23  1  0
 13 20  4  0
 13 29  4  0
 14 17  4  0
 14 28  4  0
 15 25  2  0
 16 27  4  0
 17 18  4  0
 20 27  1  0
 24 27  4  0
 26 28  4  0
M  END
$$$$

 Created by Python create_sdf_string function

 29 33  0  0  0  0  0  0  0  0999 V2000
    8.8270   -7.0288   18.4251 C   0  0  0  0  0  0  0  0  0  0  0  0
    9.1576   -4.6236   15.8860 O   0  0  0  0  0  0  0  0  0  0  0  0
    9.1509   -5.9108   17.7177 C   0  0  0  0  0  0  0  0  0  0  0  0
    3.6373   -9.5349   16.0582 N   0  0  0  0  0  0  0  0  0  0  0  0
    9.9275   -4.8001   18.0438 N   0  0  0  0  0  0  0  0  0  0  0  0
    8.5908   -5.7425   16.4412 C   0  0  0  0  0  0  0  0  0  0  0  0
   10.5993   -4.8981   21.6068 C   0  0  0  0  0  0  0  0  0  0  0  0
   10.4258   -3.0106   23.0998 C   0  0  0  0  0  0  0  0  0  0  0  0
   10.2148   -3.4364   25.4200 C   0  0  0  0  0  0  0  0  0  0  0  0
    9.7853   -1.1840   24.4927 C   0  0  0  0  0  0  0  0  0  0  0  0
    5.0276   -8.5227   17.5352 C   0  0  0  0  0  0  0  0  0  0  0  0
    9.8187   -2.0895   25.5800 C   0  0  0  0  0  0  0  0  0  0  0  0
    5.6473   -8.7216   15.3158 C   0  0  0  0  0  0  0  0  0  0  0  0
   10.7581   -3.1233   19.4720 N   0  0  0  0  0  0  0  0  0  0  0  0
    9.9571   -4.0573   16.8866 C   0  0  0  0  0  0  0  0  0  0  0  0
    7.6213   -6.5618   16.0087 C   0  0  0  0  0  0  0  0  0  0  0  0
   10.8583   -2.6527   20.7222 C   0  0  0  0  0  0  0  0  0  0  0  0
   10.6412   -3.5089   21.7936 C   0  0  0  0  0  0  0  0  0  0  0  0
   10.4972   -3.8968   24.1589 C   0  0  0  0  0  0  0  0  0  0  0  0
    5.9260   -8.2736   16.5517 C   0  0  0  0  0  0  0  0  0  0  0  0
    3.8816   -9.1166   17.2493 C   0  0  0  0  0  0  0  0  0  0  0  0
   10.1297   -1.6575   23.2324 C   0  0  0  0  0  0  0  0  0  0  0  0
    9.4684   -1.6929   26.7263 F   0  0  0  0  0  0  0  0  0  0  0  0
    7.7963   -7.7906   17.9837 C   0  0  0  0  0  0  0  0  0  0  0  0
   10.5884   -3.0725   16.7902 O   0  0  0  0  0  0  0  0  0  0  0  0
   10.4323   -5.3494   20.3516 C   0  0  0  0  0  0  0  0  0  0  0  0
    7.1156   -7.5454   16.8218 C   0  0  0  0  0  0  0  0  0  0  0  0
   10.3885   -4.4388   19.2773 C   0  0  0  0  0  0  0  0  0  0  0  0
    4.5160   -9.3822   15.0841 C   0  0  0  0  0  0  0  0  0  0  0  0
  1  3  4  0
  1 24  4  0
  2  6  4  0
  2 15  4  0
  3  5  4  0
  3  6  4  0
  4 21  4  0
  4 29  4  0
  5 15  4  0
  5 28  1  0
  6 16  4  0
  7 18  4  0
  7 26  4  0
  8 18  1  0
  8 19  4  0
  8 22  4  0
  9 12  4  0
  9 19  4  0
 10 12  4  0
 10 22  4  0
 11 20  4  0
 11 21  4  0
 12 23  1  0
 13 20  4  0
 13 29  4  0
 14 17  4  0
 14 28  4  0
 15 25  2  0
 16 27  4  0
 17 18  4  0
 20 27  1  0
 24 27  4  0
 26 28  4  0
M  END
$$$$

 Created by Python create_sdf_string function

 29 33  0  0  0  0  0  0  0  0999 V2000
    8.8270   -7.0288   18.4251 C   0  0  0  0  0  0  0  0  0  0  0  0
    9.1576   -4.6236   15.8860 O   0  0  0  0  0  0  0  0  0  0  0  0
    9.1509   -5.9108   17.7177 C   0  0  0  0  0  0  0  0  0  0  0  0
    3.6373   -9.5349   16.0582 N   0  0  0  0  0  0  0  0  0  0  0  0
    9.9275   -4.8001   18.0438 N   0  0  0  0  0  0  0  0  0  0  0  0
    8.5908   -5.7425   16.4412 C   0  0  0  0  0  0  0  0  0  0  0  0
   10.5993   -4.8981   21.6068 C   0  0  0  0  0  0  0  0  0  0  0  0
   10.4258   -3.0106   23.0998 C   0  0  0  0  0  0  0  0  0  0  0  0
   10.2148   -3.4364   25.4200 C   0  0  0  0  0  0  0  0  0  0  0  0
    9.7853   -1.1840   24.4927 C   0  0  0  0  0  0  0  0  0  0  0  0
    5.0276   -8.5227   17.5352 C   0  0  0  0  0  0  0  0  0  0  0  0
    9.8187   -2.0895   25.5800 C   0  0  0  0  0  0  0  0  0  0  0  0
    5.6473   -8.7216   15.3158 C   0  0  0  0  0  0  0  0  0  0  0  0
   10.7581   -3.1233   19.4720 N   0  0  0  0  0  0  0  0  0  0  0  0
    9.9571   -4.0573   16.8866 C   0  0  0  0  0  0  0  0  0  0  0  0
    7.6213   -6.5618   16.0087 C   0  0  0  0  0  0  0  0  0  0  0  0
   10.8583   -2.6527   20.7222 C   0  0  0  0  0  0  0  0  0  0  0  0
   10.6412   -3.5089   21.7936 C   0  0  0  0  0  0  0  0  0  0  0  0
   10.4972   -3.8968   24.1589 C   0  0  0  0  0  0  0  0  0  0  0  0
    5.9260   -8.2736   16.5517 C   0  0  0  0  0  0  0  0  0  0  0  0
    3.8816   -9.1166   17.2493 C   0  0  0  0  0  0  0  0  0  0  0  0
   10.1297   -1.6575   23.2324 C   0  0  0  0  0  0  0  0  0  0  0  0
    9.4684   -1.6929   26.7263 F   0  0  0  0  0  0  0  0  0  0  0  0
    7.7963   -7.7906   17.9837 C   0  0  0  0  0  0  0  0  0  0  0  0
   10.5884   -3.0725   16.7902 O   0  0  0  0  0  0  0  0  0  0  0  0
   10.4323   -5.3494   20.3516 C   0  0  0  0  0  0  0  0  0  0  0  0
    7.1156   -7.5454   16.8218 C   0  0  0  0  0  0  0  0  0  0  0  0
   10.3885   -4.4388   19.2773 C   0  0  0  0  0  0  0  0  0  0  0  0
    4.5160   -9.3822   15.0841 C   0  0  0  0  0  0  0  0  0  0  0  0
  1  3  4  0
  1 24  4  0
  2  6  4  0
  2 15  4  0
  3  5  4  0
  3  6  4  0
  4 21  4  0
  4 29  4  0
  5 15  4  0
  5 28  1  0
  6 16  4  0
  7 18  4  0
  7 26  4  0
  8 18  1  0
  8 19  4  0
  8 22  4  0
  9 12  4  0
  9 19  4  0
 10 12  4  0
 10 22  4  0
 11 20  4  0
 11 21  4  0
 12 23  1  0
 13 20  4  0
 13 29  4  0
 14 17  4  0
 14 28  4  0
 15 25  2  0
 16 27  4  0
 17 18  4  0
 20 27  1  0
 24 27  4  0
 26 28  4  0
M  END
$$$$

 Created by Python create_sdf_string function

 29 33  0  0  0  0  0  0  0  0999 V2000
    8.8270   -7.0288   18.4251 C   0  0  0  0  0  0  0  0  0  0  0  0
    9.1576   -4.6236   15.8860 O   0  0  0  0  0  0  0  0  0  0  0  0
    9.1509   -5.9108   17.7177 C   0  0  0  0  0  0  0  0  0  0  0  0
    3.6373   -9.5349   16.0582 N   0  0  0  0  0  0  0  0  0  0  0  0
    9.9275   -4.8001   18.0438 N   0  0  0  0  0  0  0  0  0  0  0  0
    8.5908   -5.7425   16.4412 C   0  0  0  0  0  0  0  0  0  0  0  0
   10.5993   -4.8981   21.6068 C   0  0  0  0  0  0  0  0  0  0  0  0
   10.4258   -3.0106   23.0998 C   0  0  0  0  0  0  0  0  0  0  0  0
   10.2148   -3.4364   25.4200 C   0  0  0  0  0  0  0  0  0  0  0  0
    9.7853   -1.1840   24.4927 C   0  0  0  0  0  0  0  0  0  0  0  0
    5.0276   -8.5227   17.5352 C   0  0  0  0  0  0  0  0  0  0  0  0
    9.8187   -2.0895   25.5800 C   0  0  0  0  0  0  0  0  0  0  0  0
    5.6473   -8.7216   15.3158 C   0  0  0  0  0  0  0  0  0  0  0  0
   10.7581   -3.1233   19.4720 N   0  0  0  0  0  0  0  0  0  0  0  0
    9.9571   -4.0573   16.8866 C   0  0  0  0  0  0  0  0  0  0  0  0
    7.6213   -6.5618   16.0087 C   0  0  0  0  0  0  0  0  0  0  0  0
   10.8583   -2.6527   20.7222 C   0  0  0  0  0  0  0  0  0  0  0  0
   10.6412   -3.5089   21.7936 C   0  0  0  0  0  0  0  0  0  0  0  0
   10.4972   -3.8968   24.1589 C   0  0  0  0  0  0  0  0  0  0  0  0
    5.9260   -8.2736   16.5517 C   0  0  0  0  0  0  0  0  0  0  0  0
    3.8816   -9.1166   17.2493 C   0  0  0  0  0  0  0  0  0  0  0  0
   10.1297   -1.6575   23.2324 C   0  0  0  0  0  0  0  0  0  0  0  0
    9.4684   -1.6929   26.7263 F   0  0  0  0  0  0  0  0  0  0  0  0
    7.7963   -7.7906   17.9837 C   0  0  0  0  0  0  0  0  0  0  0  0
   10.5884   -3.0725   16.7902 O   0  0  0  0  0  0  0  0  0  0  0  0
   10.4323   -5.3494   20.3516 C   0  0  0  0  0  0  0  0  0  0  0  0
    7.1156   -7.5454   16.8218 C   0  0  0  0  0  0  0  0  0  0  0  0
   10.3885   -4.4388   19.2773 C   0  0  0  0  0  0  0  0  0  0  0  0
    4.5160   -9.3822   15.0841 C   0  0  0  0  0  0  0  0  0  0  0  0
  1  3  4  0
  1 24  4  0
  2  6  4  0
  2 15  4  0
  3  5  4  0
  3  6  4  0
  4 21  4  0
  4 29  4  0
  5 15  4  0
  5 28  1  0
  6 16  4  0
  7 18  4  0
  7 26  4  0
  8 18  1  0
  8 19  4  0
  8 22  4  0
  9 12  4  0
  9 19  4  0
 10 12  4  0
 10 22  4  0
 11 20  4  0
 11 21  4  0
 12 23  1  0
 13 20  4  0
 13 29  4  0
 14 17  4  0
 14 28  4  0
 15 25  2  0
 16 27  4  0
 17 18  4  0
 20 27  1  0
 24 27  4  0
 26 28  4  0
M  END
$$$$

 Created by Python create_sdf_string function

 29 33  0  0  0  0  0  0  0  0999 V2000
    8.8270   -7.0288   18.4251 C   0  0  0  0  0  0  0  0  0  0  0  0
    9.1576   -4.6236   15.8860 O   0  0  0  0  0  0  0  0  0  0  0  0
    9.1509   -5.9108   17.7177 C   0  0  0  0  0  0  0  0  0  0  0  0
    3.6373   -9.5349   16.0582 N   0  0  0  0  0  0  0  0  0  0  0  0
    9.9275   -4.8001   18.0438 N   0  0  0  0  0  0  0  0  0  0  0  0
    8.5908   -5.7425   16.4412 C   0  0  0  0  0  0  0  0  0  0  0  0
   10.5993   -4.8981   21.6068 C   0  0  0  0  0  0  0  0  0  0  0  0
   10.4258   -3.0106   23.0998 C   0  0  0  0  0  0  0  0  0  0  0  0
   10.2148   -3.4364   25.4200 C   0  0  0  0  0  0  0  0  0  0  0  0
    9.7853   -1.1840   24.4927 C   0  0  0  0  0  0  0  0  0  0  0  0
    5.0276   -8.5227   17.5352 C   0  0  0  0  0  0  0  0  0  0  0  0
    9.8187   -2.0895   25.5800 C   0  0  0  0  0  0  0  0  0  0  0  0
    5.6473   -8.7216   15.3158 C   0  0  0  0  0  0  0  0  0  0  0  0
   10.7581   -3.1233   19.4720 N   0  0  0  0  0  0  0  0  0  0  0  0
    9.9571   -4.0573   16.8866 C   0  0  0  0  0  0  0  0  0  0  0  0
    7.6213   -6.5618   16.0087 C   0  0  0  0  0  0  0  0  0  0  0  0
   10.8583   -2.6527   20.7222 C   0  0  0  0  0  0  0  0  0  0  0  0
   10.6412   -3.5089   21.7936 C   0  0  0  0  0  0  0  0  0  0  0  0
   10.4972   -3.8968   24.1589 C   0  0  0  0  0  0  0  0  0  0  0  0
    5.9260   -8.2736   16.5517 C   0  0  0  0  0  0  0  0  0  0  0  0
    3.8816   -9.1166   17.2493 C   0  0  0  0  0  0  0  0  0  0  0  0
   10.1297   -1.6575   23.2324 C   0  0  0  0  0  0  0  0  0  0  0  0
    9.4684   -1.6929   26.7263 F   0  0  0  0  0  0  0  0  0  0  0  0
    7.7963   -7.7906   17.9837 C   0  0  0  0  0  0  0  0  0  0  0  0
   10.5884   -3.0725   16.7902 O   0  0  0  0  0  0  0  0  0  0  0  0
   10.4323   -5.3494   20.3516 C   0  0  0  0  0  0  0  0  0  0  0  0
    7.1156   -7.5454   16.8218 C   0  0  0  0  0  0  0  0  0  0  0  0
   10.3885   -4.4388   19.2773 C   0  0  0  0  0  0  0  0  0  0  0  0
    4.5160   -9.3822   15.0841 C   0  0  0  0  0  0  0  0  0  0  0  0
  1  3  4  0
  1 24  4  0
  2  6  4  0
  2 15  4  0
  3  5  4  0
  3  6  4  0
  4 21  4  0
  4 29  4  0
  5 15  4  0
  5 28  1  0
  6 16  4  0
  7 18  4  0
  7 26  4  0
  8 18  1  0
  8 19  4  0
  8 22  4  0
  9 12  4  0
  9 19  4  0
 10 12  4  0
 10 22  4  0
 11 20  4  0
 11 21  4  0
 12 23  1  0
 13 20  4  0
 13 29  4  0
 14 17  4  0
 14 28  4  0
 15 25  2  0
 16 27  4  0
 17 18  4  0
 20 27  1  0
 24 27  4  0
 26 28  4  0
M  END
$$$$

 Created by Python create_sdf_string function

 29 33  0  0  0  0  0  0  0  0999 V2000
    8.8270   -7.0288   18.4251 C   0  0  0  0  0  0  0  0  0  0  0  0
    9.1576   -4.6236   15.8860 O   0  0  0  0  0  0  0  0  0  0  0  0
    9.1509   -5.9108   17.7177 C   0  0  0  0  0  0  0  0  0  0  0  0
    3.6373   -9.5349   16.0582 N   0  0  0  0  0  0  0  0  0  0  0  0
    9.9275   -4.8001   18.0438 N   0  0  0  0  0  0  0  0  0  0  0  0
    8.5908   -5.7425   16.4412 C   0  0  0  0  0  0  0  0  0  0  0  0
   10.5993   -4.8981   21.6068 C   0  0  0  0  0  0  0  0  0  0  0  0
   10.4258   -3.0106   23.0998 C   0  0  0  0  0  0  0  0  0  0  0  0
   10.2148   -3.4364   25.4200 C   0  0  0  0  0  0  0  0  0  0  0  0
    9.7853   -1.1840   24.4927 C   0  0  0  0  0  0  0  0  0  0  0  0
    5.0276   -8.5227   17.5352 C   0  0  0  0  0  0  0  0  0  0  0  0
    9.8187   -2.0895   25.5800 C   0  0  0  0  0  0  0  0  0  0  0  0
    5.6473   -8.7216   15.3158 C   0  0  0  0  0  0  0  0  0  0  0  0
   10.7581   -3.1233   19.4720 N   0  0  0  0  0  0  0  0  0  0  0  0
    9.9571   -4.0573   16.8866 C   0  0  0  0  0  0  0  0  0  0  0  0
    7.6213   -6.5618   16.0087 C   0  0  0  0  0  0  0  0  0  0  0  0
   10.8583   -2.6527   20.7222 C   0  0  0  0  0  0  0  0  0  0  0  0
   10.6412   -3.5089   21.7936 C   0  0  0  0  0  0  0  0  0  0  0  0
   10.4972   -3.8968   24.1589 C   0  0  0  0  0  0  0  0  0  0  0  0
    5.9260   -8.2736   16.5517 C   0  0  0  0  0  0  0  0  0  0  0  0
    3.8816   -9.1166   17.2493 C   0  0  0  0  0  0  0  0  0  0  0  0
   10.1297   -1.6575   23.2324 C   0  0  0  0  0  0  0  0  0  0  0  0
    9.4684   -1.6929   26.7263 F   0  0  0  0  0  0  0  0  0  0  0  0
    7.7963   -7.7906   17.9837 C   0  0  0  0  0  0  0  0  0  0  0  0
   10.5884   -3.0725   16.7902 O   0  0  0  0  0  0  0  0  0  0  0  0
   10.4323   -5.3494   20.3516 C   0  0  0  0  0  0  0  0  0  0  0  0
    7.1156   -7.5454   16.8218 C   0  0  0  0  0  0  0  0  0  0  0  0
   10.3885   -4.4388   19.2773 C   0  0  0  0  0  0  0  0  0  0  0  0
    4.5160   -9.3822   15.0841 C   0  0  0  0  0  0  0  0  0  0  0  0
  1  3  4  0
  1 24  4  0
  2  6  4  0
  2 15  4  0
  3  5  4  0
  3  6  4  0
  4 21  4  0
  4 29  4  0
  5 15  4  0
  5 28  1  0
  6 16  4  0
  7 18  4  0
  7 26  4  0
  8 18  1  0
  8 19  4  0
  8 22  4  0
  9 12  4  0
  9 19  4  0
 10 12  4  0
 10 22  4  0
 11 20  4  0
 11 21  4  0
 12 23  1  0
 13 20  4  0
 13 29  4  0
 14 17  4  0
 14 28  4  0
 15 25  2  0
 16 27  4  0
 17 18  4  0
 20 27  1  0
 24 27  4  0
 26 28  4  0
M  END
$$$$

 Created by Python create_sdf_string function

 29 33  0  0  0  0  0  0  0  0999 V2000
    8.8270   -7.0288   18.4251 C   0  0  0  0  0  0  0  0  0  0  0  0
    9.1576   -4.6236   15.8860 O   0  0  0  0  0  0  0  0  0  0  0  0
    9.1509   -5.9108   17.7177 C   0  0  0  0  0  0  0  0  0  0  0  0
    3.6373   -9.5349   16.0582 N   0  0  0  0  0  0  0  0  0  0  0  0
    9.9275   -4.8001   18.0438 N   0  0  0  0  0  0  0  0  0  0  0  0
    8.5908   -5.7425   16.4412 C   0  0  0  0  0  0  0  0  0  0  0  0
   10.5993   -4.8981   21.6068 C   0  0  0  0  0  0  0  0  0  0  0  0
   10.4258   -3.0106   23.0998 C   0  0  0  0  0  0  0  0  0  0  0  0
   10.2148   -3.4364   25.4200 C   0  0  0  0  0  0  0  0  0  0  0  0
    9.7853   -1.1840   24.4927 C   0  0  0  0  0  0  0  0  0  0  0  0
    5.0276   -8.5227   17.5352 C   0  0  0  0  0  0  0  0  0  0  0  0
    9.8187   -2.0895   25.5800 C   0  0  0  0  0  0  0  0  0  0  0  0
    5.6473   -8.7216   15.3158 C   0  0  0  0  0  0  0  0  0  0  0  0
   10.7581   -3.1233   19.4720 N   0  0  0  0  0  0  0  0  0  0  0  0
    9.9571   -4.0573   16.8866 C   0  0  0  0  0  0  0  0  0  0  0  0
    7.6213   -6.5618   16.0087 C   0  0  0  0  0  0  0  0  0  0  0  0
   10.8583   -2.6527   20.7222 C   0  0  0  0  0  0  0  0  0  0  0  0
   10.6412   -3.5089   21.7936 C   0  0  0  0  0  0  0  0  0  0  0  0
   10.4972   -3.8968   24.1589 C   0  0  0  0  0  0  0  0  0  0  0  0
    5.9260   -8.2736   16.5517 C   0  0  0  0  0  0  0  0  0  0  0  0
    3.8816   -9.1166   17.2493 C   0  0  0  0  0  0  0  0  0  0  0  0
   10.1297   -1.6575   23.2324 C   0  0  0  0  0  0  0  0  0  0  0  0
    9.4684   -1.6929   26.7263 F   0  0  0  0  0  0  0  0  0  0  0  0
    7.7963   -7.7906   17.9837 C   0  0  0  0  0  0  0  0  0  0  0  0
   10.5884   -3.0725   16.7902 O   0  0  0  0  0  0  0  0  0  0  0  0
   10.4323   -5.3494   20.3516 C   0  0  0  0  0  0  0  0  0  0  0  0
    7.1156   -7.5454   16.8218 C   0  0  0  0  0  0  0  0  0  0  0  0
   10.3885   -4.4388   19.2773 C   0  0  0  0  0  0  0  0  0  0  0  0
    4.5160   -9.3822   15.0841 C   0  0  0  0  0  0  0  0  0  0  0  0
  1  3  4  0
  1 24  4  0
  2  6  4  0
  2 15  4  0
  3  5  4  0
  3  6  4  0
  4 21  4  0
  4 29  4  0
  5 15  4  0
  5 28  1  0
  6 16  4  0
  7 18  4  0
  7 26  4  0
  8 18  1  0
  8 19  4  0
  8 22  4  0
  9 12  4  0
  9 19  4  0
 10 12  4  0
 10 22  4  0
 11 20  4  0
 11 21  4  0
 12 23  1  0
 13 20  4  0
 13 29  4  0
 14 17  4  0
 14 28  4  0
 15 25  2  0
 16 27  4  0
 17 18  4  0
 20 27  1  0
 24 27  4  0
 26 28  4  0
M  END
$$$$

 Created by Python create_sdf_string function

 29 33  0  0  0  0  0  0  0  0999 V2000
    8.8270   -7.0288   18.4251 C   0  0  0  0  0  0  0  0  0  0  0  0
    9.1576   -4.6236   15.8860 O   0  0  0  0  0  0  0  0  0  0  0  0
    9.1509   -5.9108   17.7177 C   0  0  0  0  0  0  0  0  0  0  0  0
    3.6373   -9.5349   16.0582 N   0  0  0  0  0  0  0  0  0  0  0  0
    9.9275   -4.8001   18.0438 N   0  0  0  0  0  0  0  0  0  0  0  0
    8.5908   -5.7425   16.4412 C   0  0  0  0  0  0  0  0  0  0  0  0
   10.5993   -4.8981   21.6068 C   0  0  0  0  0  0  0  0  0  0  0  0
   10.4258   -3.0106   23.0998 C   0  0  0  0  0  0  0  0  0  0  0  0
   10.2148   -3.4364   25.4200 C   0  0  0  0  0  0  0  0  0  0  0  0
    9.7853   -1.1840   24.4927 C   0  0  0  0  0  0  0  0  0  0  0  0
    5.0276   -8.5227   17.5352 C   0  0  0  0  0  0  0  0  0  0  0  0
    9.8187   -2.0895   25.5800 C   0  0  0  0  0  0  0  0  0  0  0  0
    5.6473   -8.7216   15.3158 C   0  0  0  0  0  0  0  0  0  0  0  0
   10.7581   -3.1233   19.4720 N   0  0  0  0  0  0  0  0  0  0  0  0
    9.9571   -4.0573   16.8866 C   0  0  0  0  0  0  0  0  0  0  0  0
    7.6213   -6.5618   16.0087 C   0  0  0  0  0  0  0  0  0  0  0  0
   10.8583   -2.6527   20.7222 C   0  0  0  0  0  0  0  0  0  0  0  0
   10.6412   -3.5089   21.7936 C   0  0  0  0  0  0  0  0  0  0  0  0
   10.4972   -3.8968   24.1589 C   0  0  0  0  0  0  0  0  0  0  0  0
    5.9260   -8.2736   16.5517 C   0  0  0  0  0  0  0  0  0  0  0  0
    3.8816   -9.1166   17.2493 C   0  0  0  0  0  0  0  0  0  0  0  0
   10.1297   -1.6575   23.2324 C   0  0  0  0  0  0  0  0  0  0  0  0
    9.4684   -1.6929   26.7263 F   0  0  0  0  0  0  0  0  0  0  0  0
    7.7963   -7.7906   17.9837 C   0  0  0  0  0  0  0  0  0  0  0  0
   10.5884   -3.0725   16.7902 O   0  0  0  0  0  0  0  0  0  0  0  0
   10.4323   -5.3494   20.3516 C   0  0  0  0  0  0  0  0  0  0  0  0
    7.1156   -7.5454   16.8218 C   0  0  0  0  0  0  0  0  0  0  0  0
   10.3885   -4.4388   19.2773 C   0  0  0  0  0  0  0  0  0  0  0  0
    4.5160   -9.3822   15.0841 C   0  0  0  0  0  0  0  0  0  0  0  0
  1  3  4  0
  1 24  4  0
  2  6  4  0
  2 15  4  0
  3  5  4  0
  3  6  4  0
  4 21  4  0
  4 29  4  0
  5 15  4  0
  5 28  1  0
  6 16  4  0
  7 18  4  0
  7 26  4  0
  8 18  1  0
  8 19  4  0
  8 22  4  0
  9 12  4  0
  9 19  4  0
 10 12  4  0
 10 22  4  0
 11 20  4  0
 11 21  4  0
 12 23  1  0
 13 20  4  0
 13 29  4  0
 14 17  4  0
 14 28  4  0
 15 25  2  0
 16 27  4  0
 17 18  4  0
 20 27  1  0
 24 27  4  0
 26 28  4  0
M  END
$$$$

 Created by Python create_sdf_string function

 29 33  0  0  0  0  0  0  0  0999 V2000
    8.8270   -7.0288   18.4251 C   0  0  0  0  0  0  0  0  0  0  0  0
    9.1576   -4.6236   15.8860 O   0  0  0  0  0  0  0  0  0  0  0  0
    9.1509   -5.9108   17.7177 C   0  0  0  0  0  0  0  0  0  0  0  0
    3.6373   -9.5349   16.0582 N   0  0  0  0  0  0  0  0  0  0  0  0
    9.9275   -4.8001   18.0438 N   0  0  0  0  0  0  0  0  0  0  0  0
    8.5908   -5.7425   16.4412 C   0  0  0  0  0  0  0  0  0  0  0  0
   10.5993   -4.8981   21.6068 C   0  0  0  0  0  0  0  0  0  0  0  0
   10.4258   -3.0106   23.0998 C   0  0  0  0  0  0  0  0  0  0  0  0
   10.2148   -3.4364   25.4200 C   0  0  0  0  0  0  0  0  0  0  0  0
    9.7853   -1.1840   24.4927 C   0  0  0  0  0  0  0  0  0  0  0  0
    5.0276   -8.5227   17.5352 C   0  0  0  0  0  0  0  0  0  0  0  0
    9.8187   -2.0895   25.5800 C   0  0  0  0  0  0  0  0  0  0  0  0
    5.6473   -8.7216   15.3158 C   0  0  0  0  0  0  0  0  0  0  0  0
   10.7581   -3.1233   19.4720 N   0  0  0  0  0  0  0  0  0  0  0  0
    9.9571   -4.0573   16.8866 C   0  0  0  0  0  0  0  0  0  0  0  0
    7.6213   -6.5618   16.0087 C   0  0  0  0  0  0  0  0  0  0  0  0
   10.8583   -2.6527   20.7222 C   0  0  0  0  0  0  0  0  0  0  0  0
   10.6412   -3.5089   21.7936 C   0  0  0  0  0  0  0  0  0  0  0  0
   10.4972   -3.8968   24.1589 C   0  0  0  0  0  0  0  0  0  0  0  0
    5.9260   -8.2736   16.5517 C   0  0  0  0  0  0  0  0  0  0  0  0
    3.8816   -9.1166   17.2493 C   0  0  0  0  0  0  0  0  0  0  0  0
   10.1297   -1.6575   23.2324 C   0  0  0  0  0  0  0  0  0  0  0  0
    9.4684   -1.6929   26.7263 F   0  0  0  0  0  0  0  0  0  0  0  0
    7.7963   -7.7906   17.9837 C   0  0  0  0  0  0  0  0  0  0  0  0
   10.5884   -3.0725   16.7902 O   0  0  0  0  0  0  0  0  0  0  0  0
   10.4323   -5.3494   20.3516 C   0  0  0  0  0  0  0  0  0  0  0  0
    7.1156   -7.5454   16.8218 C   0  0  0  0  0  0  0  0  0  0  0  0
   10.3885   -4.4388   19.2773 C   0  0  0  0  0  0  0  0  0  0  0  0
    4.5160   -9.3822   15.0841 C   0  0  0  0  0  0  0  0  0  0  0  0
  1  3  4  0
  1 24  4  0
  2  6  4  0
  2 15  4  0
  3  5  4  0
  3  6  4  0
  4 21  4  0
  4 29  4  0
  5 15  4  0
  5 28  1  0
  6 16  4  0
  7 18  4  0
  7 26  4  0
  8 18  1  0
  8 19  4  0
  8 22  4  0
  9 12  4  0
  9 19  4  0
 10 12  4  0
 10 22  4  0
 11 20  4  0
 11 21  4  0
 12 23  1  0
 13 20  4  0
 13 29  4  0
 14 17  4  0
 14 28  4  0
 15 25  2  0
 16 27  4  0
 17 18  4  0
 20 27  1  0
 24 27  4  0
 26 28  4  0
M  END
$$$$

 Created by Python create_sdf_string function

 29 33  0  0  0  0  0  0  0  0999 V2000
    8.8270   -7.0288   18.4251 C   0  0  0  0  0  0  0  0  0  0  0  0
    9.1576   -4.6236   15.8860 O   0  0  0  0  0  0  0  0  0  0  0  0
    9.1509   -5.9108   17.7177 C   0  0  0  0  0  0  0  0  0  0  0  0
    3.6373   -9.5349   16.0582 N   0  0  0  0  0  0  0  0  0  0  0  0
    9.9275   -4.8001   18.0438 N   0  0  0  0  0  0  0  0  0  0  0  0
    8.5908   -5.7425   16.4412 C   0  0  0  0  0  0  0  0  0  0  0  0
   10.5993   -4.8981   21.6068 C   0  0  0  0  0  0  0  0  0  0  0  0
   10.4258   -3.0106   23.0998 C   0  0  0  0  0  0  0  0  0  0  0  0
   10.2148   -3.4364   25.4200 C   0  0  0  0  0  0  0  0  0  0  0  0
    9.7853   -1.1840   24.4927 C   0  0  0  0  0  0  0  0  0  0  0  0
    5.0276   -8.5227   17.5352 C   0  0  0  0  0  0  0  0  0  0  0  0
    9.8187   -2.0895   25.5800 C   0  0  0  0  0  0  0  0  0  0  0  0
    5.6473   -8.7216   15.3158 C   0  0  0  0  0  0  0  0  0  0  0  0
   10.7581   -3.1233   19.4720 N   0  0  0  0  0  0  0  0  0  0  0  0
    9.9571   -4.0573   16.8866 C   0  0  0  0  0  0  0  0  0  0  0  0
    7.6213   -6.5618   16.0087 C   0  0  0  0  0  0  0  0  0  0  0  0
   10.8583   -2.6527   20.7222 C   0  0  0  0  0  0  0  0  0  0  0  0
   10.6412   -3.5089   21.7936 C   0  0  0  0  0  0  0  0  0  0  0  0
   10.4972   -3.8968   24.1589 C   0  0  0  0  0  0  0  0  0  0  0  0
    5.9260   -8.2736   16.5517 C   0  0  0  0  0  0  0  0  0  0  0  0
    3.8816   -9.1166   17.2493 C   0  0  0  0  0  0  0  0  0  0  0  0
   10.1297   -1.6575   23.2324 C   0  0  0  0  0  0  0  0  0  0  0  0
    9.4684   -1.6929   26.7263 F   0  0  0  0  0  0  0  0  0  0  0  0
    7.7963   -7.7906   17.9837 C   0  0  0  0  0  0  0  0  0  0  0  0
   10.5884   -3.0725   16.7902 O   0  0  0  0  0  0  0  0  0  0  0  0
   10.4323   -5.3494   20.3516 C   0  0  0  0  0  0  0  0  0  0  0  0
    7.1156   -7.5454   16.8218 C   0  0  0  0  0  0  0  0  0  0  0  0
   10.3885   -4.4388   19.2773 C   0  0  0  0  0  0  0  0  0  0  0  0
    4.5160   -9.3822   15.0841 C   0  0  0  0  0  0  0  0  0  0  0  0
  1  3  4  0
  1 24  4  0
  2  6  4  0
  2 15  4  0
  3  5  4  0
  3  6  4  0
  4 21  4  0
  4 29  4  0
  5 15  4  0
  5 28  1  0
  6 16  4  0
  7 18  4  0
  7 26  4  0
  8 18  1  0
  8 19  4  0
  8 22  4  0
  9 12  4  0
  9 19  4  0
 10 12  4  0
 10 22  4  0
 11 20  4  0
 11 21  4  0
 12 23  1  0
 13 20  4  0
 13 29  4  0
 14 17  4  0
 14 28  4  0
 15 25  2  0
 16 27  4  0
 17 18  4  0
 20 27  1  0
 24 27  4  0
 26 28  4  0
M  END
$$$$

 Created by Python create_sdf_string function

 29 33  0  0  0  0  0  0  0  0999 V2000
    8.8270   -7.0288   18.4251 C   0  0  0  0  0  0  0  0  0  0  0  0
    9.1576   -4.6236   15.8860 O   0  0  0  0  0  0  0  0  0  0  0  0
    9.1509   -5.9108   17.7177 C   0  0  0  0  0  0  0  0  0  0  0  0
    3.6373   -9.5349   16.0582 N   0  0  0  0  0  0  0  0  0  0  0  0
    9.9275   -4.8001   18.0438 N   0  0  0  0  0  0  0  0  0  0  0  0
    8.5908   -5.7425   16.4412 C   0  0  0  0  0  0  0  0  0  0  0  0
   10.5993   -4.8981   21.6068 C   0  0  0  0  0  0  0  0  0  0  0  0
   10.4258   -3.0106   23.0998 C   0  0  0  0  0  0  0  0  0  0  0  0
   10.2148   -3.4364   25.4200 C   0  0  0  0  0  0  0  0  0  0  0  0
    9.7853   -1.1840   24.4927 C   0  0  0  0  0  0  0  0  0  0  0  0
    5.0276   -8.5227   17.5352 C   0  0  0  0  0  0  0  0  0  0  0  0
    9.8187   -2.0895   25.5800 C   0  0  0  0  0  0  0  0  0  0  0  0
    5.6473   -8.7216   15.3158 C   0  0  0  0  0  0  0  0  0  0  0  0
   10.7581   -3.1233   19.4720 N   0  0  0  0  0  0  0  0  0  0  0  0
    9.9571   -4.0573   16.8866 C   0  0  0  0  0  0  0  0  0  0  0  0
    7.6213   -6.5618   16.0087 C   0  0  0  0  0  0  0  0  0  0  0  0
   10.8583   -2.6527   20.7222 C   0  0  0  0  0  0  0  0  0  0  0  0
   10.6412   -3.5089   21.7936 C   0  0  0  0  0  0  0  0  0  0  0  0
   10.4972   -3.8968   24.1589 C   0  0  0  0  0  0  0  0  0  0  0  0
    5.9260   -8.2736   16.5517 C   0  0  0  0  0  0  0  0  0  0  0  0
    3.8816   -9.1166   17.2493 C   0  0  0  0  0  0  0  0  0  0  0  0
   10.1297   -1.6575   23.2324 C   0  0  0  0  0  0  0  0  0  0  0  0
    9.4684   -1.6929   26.7263 F   0  0  0  0  0  0  0  0  0  0  0  0
    7.7963   -7.7906   17.9837 C   0  0  0  0  0  0  0  0  0  0  0  0
   10.5884   -3.0725   16.7902 O   0  0  0  0  0  0  0  0  0  0  0  0
   10.4323   -5.3494   20.3516 C   0  0  0  0  0  0  0  0  0  0  0  0
    7.1156   -7.5454   16.8218 C   0  0  0  0  0  0  0  0  0  0  0  0
   10.3885   -4.4388   19.2773 C   0  0  0  0  0  0  0  0  0  0  0  0
    4.5160   -9.3822   15.0841 C   0  0  0  0  0  0  0  0  0  0  0  0
  1  3  4  0
  1 24  4  0
  2  6  4  0
  2 15  4  0
  3  5  4  0
  3  6  4  0
  4 21  4  0
  4 29  4  0
  5 15  4  0
  5 28  1  0
  6 16  4  0
  7 18  4  0
  7 26  4  0
  8 18  1  0
  8 19  4  0
  8 22  4  0
  9 12  4  0
  9 19  4  0
 10 12  4  0
 10 22  4  0
 11 20  4  0
 11 21  4  0
 12 23  1  0
 13 20  4  0
 13 29  4  0
 14 17  4  0
 14 28  4  0
 15 25  2  0
 16 27  4  0
 17 18  4  0
 20 27  1  0
 24 27  4  0
 26 28  4  0
M  END
$$$$

 Created by Python create_sdf_string function

 29 33  0  0  0  0  0  0  0  0999 V2000
    8.8270   -7.0288   18.4251 C   0  0  0  0  0  0  0  0  0  0  0  0
    9.1576   -4.6236   15.8860 O   0  0  0  0  0  0  0  0  0  0  0  0
    9.1509   -5.9108   17.7177 C   0  0  0  0  0  0  0  0  0  0  0  0
    3.6373   -9.5349   16.0582 N   0  0  0  0  0  0  0  0  0  0  0  0
    9.9275   -4.8001   18.0438 N   0  0  0  0  0  0  0  0  0  0  0  0
    8.5908   -5.7425   16.4412 C   0  0  0  0  0  0  0  0  0  0  0  0
   10.5993   -4.8981   21.6068 C   0  0  0  0  0  0  0  0  0  0  0  0
   10.4258   -3.0106   23.0998 C   0  0  0  0  0  0  0  0  0  0  0  0
   10.2148   -3.4364   25.4200 C   0  0  0  0  0  0  0  0  0  0  0  0
    9.7853   -1.1840   24.4927 C   0  0  0  0  0  0  0  0  0  0  0  0
    5.0276   -8.5227   17.5352 C   0  0  0  0  0  0  0  0  0  0  0  0
    9.8187   -2.0895   25.5800 C   0  0  0  0  0  0  0  0  0  0  0  0
    5.6473   -8.7216   15.3158 C   0  0  0  0  0  0  0  0  0  0  0  0
   10.7581   -3.1233   19.4720 N   0  0  0  0  0  0  0  0  0  0  0  0
    9.9571   -4.0573   16.8866 C   0  0  0  0  0  0  0  0  0  0  0  0
    7.6213   -6.5618   16.0087 C   0  0  0  0  0  0  0  0  0  0  0  0
   10.8583   -2.6527   20.7222 C   0  0  0  0  0  0  0  0  0  0  0  0
   10.6412   -3.5089   21.7936 C   0  0  0  0  0  0  0  0  0  0  0  0
   10.4972   -3.8968   24.1589 C   0  0  0  0  0  0  0  0  0  0  0  0
    5.9260   -8.2736   16.5517 C   0  0  0  0  0  0  0  0  0  0  0  0
    3.8816   -9.1166   17.2493 C   0  0  0  0  0  0  0  0  0  0  0  0
   10.1297   -1.6575   23.2324 C   0  0  0  0  0  0  0  0  0  0  0  0
    9.4684   -1.6929   26.7263 F   0  0  0  0  0  0  0  0  0  0  0  0
    7.7963   -7.7906   17.9837 C   0  0  0  0  0  0  0  0  0  0  0  0
   10.5884   -3.0725   16.7902 O   0  0  0  0  0  0  0  0  0  0  0  0
   10.4323   -5.3494   20.3516 C   0  0  0  0  0  0  0  0  0  0  0  0
    7.1156   -7.5454   16.8218 C   0  0  0  0  0  0  0  0  0  0  0  0
   10.3885   -4.4388   19.2773 C   0  0  0  0  0  0  0  0  0  0  0  0
    4.5160   -9.3822   15.0841 C   0  0  0  0  0  0  0  0  0  0  0  0
  1  3  4  0
  1 24  4  0
  2  6  4  0
  2 15  4  0
  3  5  4  0
  3  6  4  0
  4 21  4  0
  4 29  4  0
  5 15  4  0
  5 28  1  0
  6 16  4  0
  7 18  4  0
  7 26  4  0
  8 18  1  0
  8 19  4  0
  8 22  4  0
  9 12  4  0
  9 19  4  0
 10 12  4  0
 10 22  4  0
 11 20  4  0
 11 21  4  0
 12 23  1  0
 13 20  4  0
 13 29  4  0
 14 17  4  0
 14 28  4  0
 15 25  2  0
 16 27  4  0
 17 18  4  0
 20 27  1  0
 24 27  4  0
 26 28  4  0
M  END
$$$$

 Created by Python create_sdf_string function

 29 33  0  0  0  0  0  0  0  0999 V2000
    8.8270   -7.0288   18.4251 C   0  0  0  0  0  0  0  0  0  0  0  0
    9.1576   -4.6236   15.8860 O   0  0  0  0  0  0  0  0  0  0  0  0
    9.1509   -5.9108   17.7177 C   0  0  0  0  0  0  0  0  0  0  0  0
    3.6373   -9.5349   16.0582 N   0  0  0  0  0  0  0  0  0  0  0  0
    9.9275   -4.8001   18.0438 N   0  0  0  0  0  0  0  0  0  0  0  0
    8.5908   -5.7425   16.4412 C   0  0  0  0  0  0  0  0  0  0  0  0
   10.5993   -4.8981   21.6068 C   0  0  0  0  0  0  0  0  0  0  0  0
   10.4258   -3.0106   23.0998 C   0  0  0  0  0  0  0  0  0  0  0  0
   10.2148   -3.4364   25.4200 C   0  0  0  0  0  0  0  0  0  0  0  0
    9.7853   -1.1840   24.4927 C   0  0  0  0  0  0  0  0  0  0  0  0
    5.0276   -8.5227   17.5352 C   0  0  0  0  0  0  0  0  0  0  0  0
    9.8187   -2.0895   25.5800 C   0  0  0  0  0  0  0  0  0  0  0  0
    5.6473   -8.7216   15.3158 C   0  0  0  0  0  0  0  0  0  0  0  0
   10.7581   -3.1233   19.4720 N   0  0  0  0  0  0  0  0  0  0  0  0
    9.9571   -4.0573   16.8866 C   0  0  0  0  0  0  0  0  0  0  0  0
    7.6213   -6.5618   16.0087 C   0  0  0  0  0  0  0  0  0  0  0  0
   10.8583   -2.6527   20.7222 C   0  0  0  0  0  0  0  0  0  0  0  0
   10.6412   -3.5089   21.7936 C   0  0  0  0  0  0  0  0  0  0  0  0
   10.4972   -3.8968   24.1589 C   0  0  0  0  0  0  0  0  0  0  0  0
    5.9260   -8.2736   16.5517 C   0  0  0  0  0  0  0  0  0  0  0  0
    3.8816   -9.1166   17.2493 C   0  0  0  0  0  0  0  0  0  0  0  0
   10.1297   -1.6575   23.2324 C   0  0  0  0  0  0  0  0  0  0  0  0
    9.4684   -1.6929   26.7263 F   0  0  0  0  0  0  0  0  0  0  0  0
    7.7963   -7.7906   17.9837 C   0  0  0  0  0  0  0  0  0  0  0  0
   10.5884   -3.0725   16.7902 O   0  0  0  0  0  0  0  0  0  0  0  0
   10.4323   -5.3494   20.3516 C   0  0  0  0  0  0  0  0  0  0  0  0
    7.1156   -7.5454   16.8218 C   0  0  0  0  0  0  0  0  0  0  0  0
   10.3885   -4.4388   19.2773 C   0  0  0  0  0  0  0  0  0  0  0  0
    4.5160   -9.3822   15.0841 C   0  0  0  0  0  0  0  0  0  0  0  0
  1  3  4  0
  1 24  4  0
  2  6  4  0
  2 15  4  0
  3  5  4  0
  3  6  4  0
  4 21  4  0
  4 29  4  0
  5 15  4  0
  5 28  1  0
  6 16  4  0
  7 18  4  0
  7 26  4  0
  8 18  1  0
  8 19  4  0
  8 22  4  0
  9 12  4  0
  9 19  4  0
 10 12  4  0
 10 22  4  0
 11 20  4  0
 11 21  4  0
 12 23  1  0
 13 20  4  0
 13 29  4  0
 14 17  4  0
 14 28  4  0
 15 25  2  0
 16 27  4  0
 17 18  4  0
 20 27  1  0
 24 27  4  0
 26 28  4  0
M  END
$$$$

 Created by Python create_sdf_string function

 29 33  0  0  0  0  0  0  0  0999 V2000
    8.8270   -7.0288   18.4251 C   0  0  0  0  0  0  0  0  0  0  0  0
    9.1576   -4.6236   15.8860 O   0  0  0  0  0  0  0  0  0  0  0  0
    9.1509   -5.9108   17.7177 C   0  0  0  0  0  0  0  0  0  0  0  0
    3.6373   -9.5349   16.0582 N   0  0  0  0  0  0  0  0  0  0  0  0
    9.9275   -4.8001   18.0438 N   0  0  0  0  0  0  0  0  0  0  0  0
    8.5908   -5.7425   16.4412 C   0  0  0  0  0  0  0  0  0  0  0  0
   10.5993   -4.8981   21.6068 C   0  0  0  0  0  0  0  0  0  0  0  0
   10.4258   -3.0106   23.0998 C   0  0  0  0  0  0  0  0  0  0  0  0
   10.2148   -3.4364   25.4200 C   0  0  0  0  0  0  0  0  0  0  0  0
    9.7853   -1.1840   24.4927 C   0  0  0  0  0  0  0  0  0  0  0  0
    5.0276   -8.5227   17.5352 C   0  0  0  0  0  0  0  0  0  0  0  0
    9.8187   -2.0895   25.5800 C   0  0  0  0  0  0  0  0  0  0  0  0
    5.6473   -8.7216   15.3158 C   0  0  0  0  0  0  0  0  0  0  0  0
   10.7581   -3.1233   19.4720 N   0  0  0  0  0  0  0  0  0  0  0  0
    9.9571   -4.0573   16.8866 C   0  0  0  0  0  0  0  0  0  0  0  0
    7.6213   -6.5618   16.0087 C   0  0  0  0  0  0  0  0  0  0  0  0
   10.8583   -2.6527   20.7222 C   0  0  0  0  0  0  0  0  0  0  0  0
   10.6412   -3.5089   21.7936 C   0  0  0  0  0  0  0  0  0  0  0  0
   10.4972   -3.8968   24.1589 C   0  0  0  0  0  0  0  0  0  0  0  0
    5.9260   -8.2736   16.5517 C   0  0  0  0  0  0  0  0  0  0  0  0
    3.8816   -9.1166   17.2493 C   0  0  0  0  0  0  0  0  0  0  0  0
   10.1297   -1.6575   23.2324 C   0  0  0  0  0  0  0  0  0  0  0  0
    9.4684   -1.6929   26.7263 F   0  0  0  0  0  0  0  0  0  0  0  0
    7.7963   -7.7906   17.9837 C   0  0  0  0  0  0  0  0  0  0  0  0
   10.5884   -3.0725   16.7902 O   0  0  0  0  0  0  0  0  0  0  0  0
   10.4323   -5.3494   20.3516 C   0  0  0  0  0  0  0  0  0  0  0  0
    7.1156   -7.5454   16.8218 C   0  0  0  0  0  0  0  0  0  0  0  0
   10.3885   -4.4388   19.2773 C   0  0  0  0  0  0  0  0  0  0  0  0
    4.5160   -9.3822   15.0841 C   0  0  0  0  0  0  0  0  0  0  0  0
  1  3  4  0
  1 24  4  0
  2  6  4  0
  2 15  4  0
  3  5  4  0
  3  6  4  0
  4 21  4  0
  4 29  4  0
  5 15  4  0
  5 28  1  0
  6 16  4  0
  7 18  4  0
  7 26  4  0
  8 18  1  0
  8 19  4  0
  8 22  4  0
  9 12  4  0
  9 19  4  0
 10 12  4  0
 10 22  4  0
 11 20  4  0
 11 21  4  0
 12 23  1  0
 13 20  4  0
 13 29  4  0
 14 17  4  0
 14 28  4  0
 15 25  2  0
 16 27  4  0
 17 18  4  0
 20 27  1  0
 24 27  4  0
 26 28  4  0
M  END
$$$$

 Created by Python create_sdf_string function

 29 33  0  0  0  0  0  0  0  0999 V2000
    8.8270   -7.0288   18.4251 C   0  0  0  0  0  0  0  0  0  0  0  0
    9.1576   -4.6236   15.8860 O   0  0  0  0  0  0  0  0  0  0  0  0
    9.1509   -5.9108   17.7177 C   0  0  0  0  0  0  0  0  0  0  0  0
    3.6373   -9.5349   16.0582 N   0  0  0  0  0  0  0  0  0  0  0  0
    9.9275   -4.8001   18.0438 N   0  0  0  0  0  0  0  0  0  0  0  0
    8.5908   -5.7425   16.4412 C   0  0  0  0  0  0  0  0  0  0  0  0
   10.5993   -4.8981   21.6068 C   0  0  0  0  0  0  0  0  0  0  0  0
   10.4258   -3.0106   23.0998 C   0  0  0  0  0  0  0  0  0  0  0  0
   10.2148   -3.4364   25.4200 C   0  0  0  0  0  0  0  0  0  0  0  0
    9.7853   -1.1840   24.4927 C   0  0  0  0  0  0  0  0  0  0  0  0
    5.0276   -8.5227   17.5352 C   0  0  0  0  0  0  0  0  0  0  0  0
    9.8187   -2.0895   25.5800 C   0  0  0  0  0  0  0  0  0  0  0  0
    5.6473   -8.7216   15.3158 C   0  0  0  0  0  0  0  0  0  0  0  0
   10.7581   -3.1233   19.4720 N   0  0  0  0  0  0  0  0  0  0  0  0
    9.9571   -4.0573   16.8866 C   0  0  0  0  0  0  0  0  0  0  0  0
    7.6213   -6.5618   16.0087 C   0  0  0  0  0  0  0  0  0  0  0  0
   10.8583   -2.6527   20.7222 C   0  0  0  0  0  0  0  0  0  0  0  0
   10.6412   -3.5089   21.7936 C   0  0  0  0  0  0  0  0  0  0  0  0
   10.4972   -3.8968   24.1589 C   0  0  0  0  0  0  0  0  0  0  0  0
    5.9260   -8.2736   16.5517 C   0  0  0  0  0  0  0  0  0  0  0  0
    3.8816   -9.1166   17.2493 C   0  0  0  0  0  0  0  0  0  0  0  0
   10.1297   -1.6575   23.2324 C   0  0  0  0  0  0  0  0  0  0  0  0
    9.4684   -1.6929   26.7263 F   0  0  0  0  0  0  0  0  0  0  0  0
    7.7963   -7.7906   17.9837 C   0  0  0  0  0  0  0  0  0  0  0  0
   10.5884   -3.0725   16.7902 O   0  0  0  0  0  0  0  0  0  0  0  0
   10.4323   -5.3494   20.3516 C   0  0  0  0  0  0  0  0  0  0  0  0
    7.1156   -7.5454   16.8218 C   0  0  0  0  0  0  0  0  0  0  0  0
   10.3885   -4.4388   19.2773 C   0  0  0  0  0  0  0  0  0  0  0  0
    4.5160   -9.3822   15.0841 C   0  0  0  0  0  0  0  0  0  0  0  0
  1  3  4  0
  1 24  4  0
  2  6  4  0
  2 15  4  0
  3  5  4  0
  3  6  4  0
  4 21  4  0
  4 29  4  0
  5 15  4  0
  5 28  1  0
  6 16  4  0
  7 18  4  0
  7 26  4  0
  8 18  1  0
  8 19  4  0
  8 22  4  0
  9 12  4  0
  9 19  4  0
 10 12  4  0
 10 22  4  0
 11 20  4  0
 11 21  4  0
 12 23  1  0
 13 20  4  0
 13 29  4  0
 14 17  4  0
 14 28  4  0
 15 25  2  0
 16 27  4  0
 17 18  4  0
 20 27  1  0
 24 27  4  0
 26 28  4  0
M  END
$$$$

 Created by Python create_sdf_string function

 29 33  0  0  0  0  0  0  0  0999 V2000
    8.8270   -7.0288   18.4251 C   0  0  0  0  0  0  0  0  0  0  0  0
    9.1576   -4.6236   15.8860 O   0  0  0  0  0  0  0  0  0  0  0  0
    9.1509   -5.9108   17.7177 C   0  0  0  0  0  0  0  0  0  0  0  0
    3.6373   -9.5349   16.0582 N   0  0  0  0  0  0  0  0  0  0  0  0
    9.9275   -4.8001   18.0438 N   0  0  0  0  0  0  0  0  0  0  0  0
    8.5908   -5.7425   16.4412 C   0  0  0  0  0  0  0  0  0  0  0  0
   10.5993   -4.8981   21.6068 C   0  0  0  0  0  0  0  0  0  0  0  0
   10.4258   -3.0106   23.0998 C   0  0  0  0  0  0  0  0  0  0  0  0
   10.2148   -3.4364   25.4200 C   0  0  0  0  0  0  0  0  0  0  0  0
    9.7853   -1.1840   24.4927 C   0  0  0  0  0  0  0  0  0  0  0  0
    5.0276   -8.5227   17.5352 C   0  0  0  0  0  0  0  0  0  0  0  0
    9.8187   -2.0895   25.5800 C   0  0  0  0  0  0  0  0  0  0  0  0
    5.6473   -8.7216   15.3158 C   0  0  0  0  0  0  0  0  0  0  0  0
   10.7581   -3.1233   19.4720 N   0  0  0  0  0  0  0  0  0  0  0  0
    9.9571   -4.0573   16.8866 C   0  0  0  0  0  0  0  0  0  0  0  0
    7.6213   -6.5618   16.0087 C   0  0  0  0  0  0  0  0  0  0  0  0
   10.8583   -2.6527   20.7222 C   0  0  0  0  0  0  0  0  0  0  0  0
   10.6412   -3.5089   21.7936 C   0  0  0  0  0  0  0  0  0  0  0  0
   10.4972   -3.8968   24.1589 C   0  0  0  0  0  0  0  0  0  0  0  0
    5.9260   -8.2736   16.5517 C   0  0  0  0  0  0  0  0  0  0  0  0
    3.8816   -9.1166   17.2493 C   0  0  0  0  0  0  0  0  0  0  0  0
   10.1297   -1.6575   23.2324 C   0  0  0  0  0  0  0  0  0  0  0  0
    9.4684   -1.6929   26.7263 F   0  0  0  0  0  0  0  0  0  0  0  0
    7.7963   -7.7906   17.9837 C   0  0  0  0  0  0  0  0  0  0  0  0
   10.5884   -3.0725   16.7902 O   0  0  0  0  0  0  0  0  0  0  0  0
   10.4323   -5.3494   20.3516 C   0  0  0  0  0  0  0  0  0  0  0  0
    7.1156   -7.5454   16.8218 C   0  0  0  0  0  0  0  0  0  0  0  0
   10.3885   -4.4388   19.2773 C   0  0  0  0  0  0  0  0  0  0  0  0
    4.5160   -9.3822   15.0841 C   0  0  0  0  0  0  0  0  0  0  0  0
  1  3  4  0
  1 24  4  0
  2  6  4  0
  2 15  4  0
  3  5  4  0
  3  6  4  0
  4 21  4  0
  4 29  4  0
  5 15  4  0
  5 28  1  0
  6 16  4  0
  7 18  4  0
  7 26  4  0
  8 18  1  0
  8 19  4  0
  8 22  4  0
  9 12  4  0
  9 19  4  0
 10 12  4  0
 10 22  4  0
 11 20  4  0
 11 21  4  0
 12 23  1  0
 13 20  4  0
 13 29  4  0
 14 17  4  0
 14 28  4  0
 15 25  2  0
 16 27  4  0
 17 18  4  0
 20 27  1  0
 24 27  4  0
 26 28  4  0
M  END
$$$$

 Created by Python create_sdf_string function

 29 33  0  0  0  0  0  0  0  0999 V2000
    8.8270   -7.0288   18.4251 C   0  0  0  0  0  0  0  0  0  0  0  0
    9.1576   -4.6236   15.8860 O   0  0  0  0  0  0  0  0  0  0  0  0
    9.1509   -5.9108   17.7177 C   0  0  0  0  0  0  0  0  0  0  0  0
    3.6373   -9.5349   16.0582 N   0  0  0  0  0  0  0  0  0  0  0  0
    9.9275   -4.8001   18.0438 N   0  0  0  0  0  0  0  0  0  0  0  0
    8.5908   -5.7425   16.4412 C   0  0  0  0  0  0  0  0  0  0  0  0
   10.5993   -4.8981   21.6068 C   0  0  0  0  0  0  0  0  0  0  0  0
   10.4258   -3.0106   23.0998 C   0  0  0  0  0  0  0  0  0  0  0  0
   10.2148   -3.4364   25.4200 C   0  0  0  0  0  0  0  0  0  0  0  0
    9.7853   -1.1840   24.4927 C   0  0  0  0  0  0  0  0  0  0  0  0
    5.0276   -8.5227   17.5352 C   0  0  0  0  0  0  0  0  0  0  0  0
    9.8187   -2.0895   25.5800 C   0  0  0  0  0  0  0  0  0  0  0  0
    5.6473   -8.7216   15.3158 C   0  0  0  0  0  0  0  0  0  0  0  0
   10.7581   -3.1233   19.4720 N   0  0  0  0  0  0  0  0  0  0  0  0
    9.9571   -4.0573   16.8866 C   0  0  0  0  0  0  0  0  0  0  0  0
    7.6213   -6.5618   16.0087 C   0  0  0  0  0  0  0  0  0  0  0  0
   10.8583   -2.6527   20.7222 C   0  0  0  0  0  0  0  0  0  0  0  0
   10.6412   -3.5089   21.7936 C   0  0  0  0  0  0  0  0  0  0  0  0
   10.4972   -3.8968   24.1589 C   0  0  0  0  0  0  0  0  0  0  0  0
    5.9260   -8.2736   16.5517 C   0  0  0  0  0  0  0  0  0  0  0  0
    3.8816   -9.1166   17.2493 C   0  0  0  0  0  0  0  0  0  0  0  0
   10.1297   -1.6575   23.2324 C   0  0  0  0  0  0  0  0  0  0  0  0
    9.4684   -1.6929   26.7263 F   0  0  0  0  0  0  0  0  0  0  0  0
    7.7963   -7.7906   17.9837 C   0  0  0  0  0  0  0  0  0  0  0  0
   10.5884   -3.0725   16.7902 O   0  0  0  0  0  0  0  0  0  0  0  0
   10.4323   -5.3494   20.3516 C   0  0  0  0  0  0  0  0  0  0  0  0
    7.1156   -7.5454   16.8218 C   0  0  0  0  0  0  0  0  0  0  0  0
   10.3885   -4.4388   19.2773 C   0  0  0  0  0  0  0  0  0  0  0  0
    4.5160   -9.3822   15.0841 C   0  0  0  0  0  0  0  0  0  0  0  0
  1  3  4  0
  1 24  4  0
  2  6  4  0
  2 15  4  0
  3  5  4  0
  3  6  4  0
  4 21  4  0
  4 29  4  0
  5 15  4  0
  5 28  1  0
  6 16  4  0
  7 18  4  0
  7 26  4  0
  8 18  1  0
  8 19  4  0
  8 22  4  0
  9 12  4  0
  9 19  4  0
 10 12  4  0
 10 22  4  0
 11 20  4  0
 11 21  4  0
 12 23  1  0
 13 20  4  0
 13 29  4  0
 14 17  4  0
 14 28  4  0
 15 25  2  0
 16 27  4  0
 17 18  4  0
 20 27  1  0
 24 27  4  0
 26 28  4  0
M  END
$$$$

 Created by Python create_sdf_string function

 29 33  0  0  0  0  0  0  0  0999 V2000
    8.8270   -7.0288   18.4251 C   0  0  0  0  0  0  0  0  0  0  0  0
    9.1576   -4.6236   15.8860 O   0  0  0  0  0  0  0  0  0  0  0  0
    9.1509   -5.9108   17.7177 C   0  0  0  0  0  0  0  0  0  0  0  0
    3.6373   -9.5349   16.0582 N   0  0  0  0  0  0  0  0  0  0  0  0
    9.9275   -4.8001   18.0438 N   0  0  0  0  0  0  0  0  0  0  0  0
    8.5908   -5.7425   16.4412 C   0  0  0  0  0  0  0  0  0  0  0  0
   10.5993   -4.8981   21.6068 C   0  0  0  0  0  0  0  0  0  0  0  0
   10.4258   -3.0106   23.0998 C   0  0  0  0  0  0  0  0  0  0  0  0
   10.2148   -3.4364   25.4200 C   0  0  0  0  0  0  0  0  0  0  0  0
    9.7853   -1.1840   24.4927 C   0  0  0  0  0  0  0  0  0  0  0  0
    5.0276   -8.5227   17.5352 C   0  0  0  0  0  0  0  0  0  0  0  0
    9.8187   -2.0895   25.5800 C   0  0  0  0  0  0  0  0  0  0  0  0
    5.6473   -8.7216   15.3158 C   0  0  0  0  0  0  0  0  0  0  0  0
   10.7581   -3.1233   19.4720 N   0  0  0  0  0  0  0  0  0  0  0  0
    9.9571   -4.0573   16.8866 C   0  0  0  0  0  0  0  0  0  0  0  0
    7.6213   -6.5618   16.0087 C   0  0  0  0  0  0  0  0  0  0  0  0
   10.8583   -2.6527   20.7222 C   0  0  0  0  0  0  0  0  0  0  0  0
   10.6412   -3.5089   21.7936 C   0  0  0  0  0  0  0  0  0  0  0  0
   10.4972   -3.8968   24.1589 C   0  0  0  0  0  0  0  0  0  0  0  0
    5.9260   -8.2736   16.5517 C   0  0  0  0  0  0  0  0  0  0  0  0
    3.8816   -9.1166   17.2493 C   0  0  0  0  0  0  0  0  0  0  0  0
   10.1297   -1.6575   23.2324 C   0  0  0  0  0  0  0  0  0  0  0  0
    9.4684   -1.6929   26.7263 F   0  0  0  0  0  0  0  0  0  0  0  0
    7.7963   -7.7906   17.9837 C   0  0  0  0  0  0  0  0  0  0  0  0
   10.5884   -3.0725   16.7902 O   0  0  0  0  0  0  0  0  0  0  0  0
   10.4323   -5.3494   20.3516 C   0  0  0  0  0  0  0  0  0  0  0  0
    7.1156   -7.5454   16.8218 C   0  0  0  0  0  0  0  0  0  0  0  0
   10.3885   -4.4388   19.2773 C   0  0  0  0  0  0  0  0  0  0  0  0
    4.5160   -9.3822   15.0841 C   0  0  0  0  0  0  0  0  0  0  0  0
  1  3  4  0
  1 24  4  0
  2  6  4  0
  2 15  4  0
  3  5  4  0
  3  6  4  0
  4 21  4  0
  4 29  4  0
  5 15  4  0
  5 28  1  0
  6 16  4  0
  7 18  4  0
  7 26  4  0
  8 18  1  0
  8 19  4  0
  8 22  4  0
  9 12  4  0
  9 19  4  0
 10 12  4  0
 10 22  4  0
 11 20  4  0
 11 21  4  0
 12 23  1  0
 13 20  4  0
 13 29  4  0
 14 17  4  0
 14 28  4  0
 15 25  2  0
 16 27  4  0
 17 18  4  0
 20 27  1  0
 24 27  4  0
 26 28  4  0
M  END
$$$$

 Created by Python create_sdf_string function

 29 33  0  0  0  0  0  0  0  0999 V2000
    8.8270   -7.0288   18.4251 C   0  0  0  0  0  0  0  0  0  0  0  0
    9.1576   -4.6236   15.8860 O   0  0  0  0  0  0  0  0  0  0  0  0
    9.1509   -5.9108   17.7177 C   0  0  0  0  0  0  0  0  0  0  0  0
    3.6373   -9.5349   16.0582 N   0  0  0  0  0  0  0  0  0  0  0  0
    9.9275   -4.8001   18.0438 N   0  0  0  0  0  0  0  0  0  0  0  0
    8.5908   -5.7425   16.4412 C   0  0  0  0  0  0  0  0  0  0  0  0
   10.5993   -4.8981   21.6068 C   0  0  0  0  0  0  0  0  0  0  0  0
   10.4258   -3.0106   23.0998 C   0  0  0  0  0  0  0  0  0  0  0  0
   10.2148   -3.4364   25.4200 C   0  0  0  0  0  0  0  0  0  0  0  0
    9.7853   -1.1840   24.4927 C   0  0  0  0  0  0  0  0  0  0  0  0
    5.0276   -8.5227   17.5352 C   0  0  0  0  0  0  0  0  0  0  0  0
    9.8187   -2.0895   25.5800 C   0  0  0  0  0  0  0  0  0  0  0  0
    5.6473   -8.7216   15.3158 C   0  0  0  0  0  0  0  0  0  0  0  0
   10.7581   -3.1233   19.4720 N   0  0  0  0  0  0  0  0  0  0  0  0
    9.9571   -4.0573   16.8866 C   0  0  0  0  0  0  0  0  0  0  0  0
    7.6213   -6.5618   16.0087 C   0  0  0  0  0  0  0  0  0  0  0  0
   10.8583   -2.6527   20.7222 C   0  0  0  0  0  0  0  0  0  0  0  0
   10.6412   -3.5089   21.7936 C   0  0  0  0  0  0  0  0  0  0  0  0
   10.4972   -3.8968   24.1589 C   0  0  0  0  0  0  0  0  0  0  0  0
    5.9260   -8.2736   16.5517 C   0  0  0  0  0  0  0  0  0  0  0  0
    3.8816   -9.1166   17.2493 C   0  0  0  0  0  0  0  0  0  0  0  0
   10.1297   -1.6575   23.2324 C   0  0  0  0  0  0  0  0  0  0  0  0
    9.4684   -1.6929   26.7263 F   0  0  0  0  0  0  0  0  0  0  0  0
    7.7963   -7.7906   17.9837 C   0  0  0  0  0  0  0  0  0  0  0  0
   10.5884   -3.0725   16.7902 O   0  0  0  0  0  0  0  0  0  0  0  0
   10.4323   -5.3494   20.3516 C   0  0  0  0  0  0  0  0  0  0  0  0
    7.1156   -7.5454   16.8218 C   0  0  0  0  0  0  0  0  0  0  0  0
   10.3885   -4.4388   19.2773 C   0  0  0  0  0  0  0  0  0  0  0  0
    4.5160   -9.3822   15.0841 C   0  0  0  0  0  0  0  0  0  0  0  0
  1  3  4  0
  1 24  4  0
  2  6  4  0
  2 15  4  0
  3  5  4  0
  3  6  4  0
  4 21  4  0
  4 29  4  0
  5 15  4  0
  5 28  1  0
  6 16  4  0
  7 18  4  0
  7 26  4  0
  8 18  1  0
  8 19  4  0
  8 22  4  0
  9 12  4  0
  9 19  4  0
 10 12  4  0
 10 22  4  0
 11 20  4  0
 11 21  4  0
 12 23  1  0
 13 20  4  0
 13 29  4  0
 14 17  4  0
 14 28  4  0
 15 25  2  0
 16 27  4  0
 17 18  4  0
 20 27  1  0
 24 27  4  0
 26 28  4  0
M  END
$$$$

 Created by Python create_sdf_string function

 29 33  0  0  0  0  0  0  0  0999 V2000
    8.8270   -7.0288   18.4251 C   0  0  0  0  0  0  0  0  0  0  0  0
    9.1576   -4.6236   15.8860 O   0  0  0  0  0  0  0  0  0  0  0  0
    9.1509   -5.9108   17.7177 C   0  0  0  0  0  0  0  0  0  0  0  0
    3.6373   -9.5349   16.0582 N   0  0  0  0  0  0  0  0  0  0  0  0
    9.9275   -4.8001   18.0438 N   0  0  0  0  0  0  0  0  0  0  0  0
    8.5908   -5.7425   16.4412 C   0  0  0  0  0  0  0  0  0  0  0  0
   10.5993   -4.8981   21.6068 C   0  0  0  0  0  0  0  0  0  0  0  0
   10.4258   -3.0106   23.0998 C   0  0  0  0  0  0  0  0  0  0  0  0
   10.2148   -3.4364   25.4200 C   0  0  0  0  0  0  0  0  0  0  0  0
    9.7853   -1.1840   24.4927 C   0  0  0  0  0  0  0  0  0  0  0  0
    5.0276   -8.5227   17.5352 C   0  0  0  0  0  0  0  0  0  0  0  0
    9.8187   -2.0895   25.5800 C   0  0  0  0  0  0  0  0  0  0  0  0
    5.6473   -8.7216   15.3158 C   0  0  0  0  0  0  0  0  0  0  0  0
   10.7581   -3.1233   19.4720 N   0  0  0  0  0  0  0  0  0  0  0  0
    9.9571   -4.0573   16.8866 C   0  0  0  0  0  0  0  0  0  0  0  0
    7.6213   -6.5618   16.0087 C   0  0  0  0  0  0  0  0  0  0  0  0
   10.8583   -2.6527   20.7222 C   0  0  0  0  0  0  0  0  0  0  0  0
   10.6412   -3.5089   21.7936 C   0  0  0  0  0  0  0  0  0  0  0  0
   10.4972   -3.8968   24.1589 C   0  0  0  0  0  0  0  0  0  0  0  0
    5.9260   -8.2736   16.5517 C   0  0  0  0  0  0  0  0  0  0  0  0
    3.8816   -9.1166   17.2493 C   0  0  0  0  0  0  0  0  0  0  0  0
   10.1297   -1.6575   23.2324 C   0  0  0  0  0  0  0  0  0  0  0  0
    9.4684   -1.6929   26.7263 F   0  0  0  0  0  0  0  0  0  0  0  0
    7.7963   -7.7906   17.9837 C   0  0  0  0  0  0  0  0  0  0  0  0
   10.5884   -3.0725   16.7902 O   0  0  0  0  0  0  0  0  0  0  0  0
   10.4323   -5.3494   20.3516 C   0  0  0  0  0  0  0  0  0  0  0  0
    7.1156   -7.5454   16.8218 C   0  0  0  0  0  0  0  0  0  0  0  0
   10.3885   -4.4388   19.2773 C   0  0  0  0  0  0  0  0  0  0  0  0
    4.5160   -9.3822   15.0841 C   0  0  0  0  0  0  0  0  0  0  0  0
  1  3  4  0
  1 24  4  0
  2  6  4  0
  2 15  4  0
  3  5  4  0
  3  6  4  0
  4 21  4  0
  4 29  4  0
  5 15  4  0
  5 28  1  0
  6 16  4  0
  7 18  4  0
  7 26  4  0
  8 18  1  0
  8 19  4  0
  8 22  4  0
  9 12  4  0
  9 19  4  0
 10 12  4  0
 10 22  4  0
 11 20  4  0
 11 21  4  0
 12 23  1  0
 13 20  4  0
 13 29  4  0
 14 17  4  0
 14 28  4  0
 15 25  2  0
 16 27  4  0
 17 18  4  0
 20 27  1  0
 24 27  4  0
 26 28  4  0
M  END
$$$$

 Created by Python create_sdf_string function

 29 33  0  0  0  0  0  0  0  0999 V2000
    8.8270   -7.0288   18.4251 C   0  0  0  0  0  0  0  0  0  0  0  0
    9.1576   -4.6236   15.8860 O   0  0  0  0  0  0  0  0  0  0  0  0
    9.1509   -5.9108   17.7177 C   0  0  0  0  0  0  0  0  0  0  0  0
    3.6373   -9.5349   16.0582 N   0  0  0  0  0  0  0  0  0  0  0  0
    9.9275   -4.8001   18.0438 N   0  0  0  0  0  0  0  0  0  0  0  0
    8.5908   -5.7425   16.4412 C   0  0  0  0  0  0  0  0  0  0  0  0
   10.5993   -4.8981   21.6068 C   0  0  0  0  0  0  0  0  0  0  0  0
   10.4258   -3.0106   23.0998 C   0  0  0  0  0  0  0  0  0  0  0  0
   10.2148   -3.4364   25.4200 C   0  0  0  0  0  0  0  0  0  0  0  0
    9.7853   -1.1840   24.4927 C   0  0  0  0  0  0  0  0  0  0  0  0
    5.0276   -8.5227   17.5352 C   0  0  0  0  0  0  0  0  0  0  0  0
    9.8187   -2.0895   25.5800 C   0  0  0  0  0  0  0  0  0  0  0  0
    5.6473   -8.7216   15.3158 C   0  0  0  0  0  0  0  0  0  0  0  0
   10.7581   -3.1233   19.4720 N   0  0  0  0  0  0  0  0  0  0  0  0
    9.9571   -4.0573   16.8866 C   0  0  0  0  0  0  0  0  0  0  0  0
    7.6213   -6.5618   16.0087 C   0  0  0  0  0  0  0  0  0  0  0  0
   10.8583   -2.6527   20.7222 C   0  0  0  0  0  0  0  0  0  0  0  0
   10.6412   -3.5089   21.7936 C   0  0  0  0  0  0  0  0  0  0  0  0
   10.4972   -3.8968   24.1589 C   0  0  0  0  0  0  0  0  0  0  0  0
    5.9260   -8.2736   16.5517 C   0  0  0  0  0  0  0  0  0  0  0  0
    3.8816   -9.1166   17.2493 C   0  0  0  0  0  0  0  0  0  0  0  0
   10.1297   -1.6575   23.2324 C   0  0  0  0  0  0  0  0  0  0  0  0
    9.4684   -1.6929   26.7263 F   0  0  0  0  0  0  0  0  0  0  0  0
    7.7963   -7.7906   17.9837 C   0  0  0  0  0  0  0  0  0  0  0  0
   10.5884   -3.0725   16.7902 O   0  0  0  0  0  0  0  0  0  0  0  0
   10.4323   -5.3494   20.3516 C   0  0  0  0  0  0  0  0  0  0  0  0
    7.1156   -7.5454   16.8218 C   0  0  0  0  0  0  0  0  0  0  0  0
   10.3885   -4.4388   19.2773 C   0  0  0  0  0  0  0  0  0  0  0  0
    4.5160   -9.3822   15.0841 C   0  0  0  0  0  0  0  0  0  0  0  0
  1  3  4  0
  1 24  4  0
  2  6  4  0
  2 15  4  0
  3  5  4  0
  3  6  4  0
  4 21  4  0
  4 29  4  0
  5 15  4  0
  5 28  1  0
  6 16  4  0
  7 18  4  0
  7 26  4  0
  8 18  1  0
  8 19  4  0
  8 22  4  0
  9 12  4  0
  9 19  4  0
 10 12  4  0
 10 22  4  0
 11 20  4  0
 11 21  4  0
 12 23  1  0
 13 20  4  0
 13 29  4  0
 14 17  4  0
 14 28  4  0
 15 25  2  0
 16 27  4  0
 17 18  4  0
 20 27  1  0
 24 27  4  0
 26 28  4  0
M  END
$$$$

 Created by Python create_sdf_string function

 29 33  0  0  0  0  0  0  0  0999 V2000
    8.8270   -7.0288   18.4251 C   0  0  0  0  0  0  0  0  0  0  0  0
    9.1576   -4.6236   15.8860 O   0  0  0  0  0  0  0  0  0  0  0  0
    9.1509   -5.9108   17.7177 C   0  0  0  0  0  0  0  0  0  0  0  0
    3.6373   -9.5349   16.0582 N   0  0  0  0  0  0  0  0  0  0  0  0
    9.9275   -4.8001   18.0438 N   0  0  0  0  0  0  0  0  0  0  0  0
    8.5908   -5.7425   16.4412 C   0  0  0  0  0  0  0  0  0  0  0  0
   10.5993   -4.8981   21.6068 C   0  0  0  0  0  0  0  0  0  0  0  0
   10.4258   -3.0106   23.0998 C   0  0  0  0  0  0  0  0  0  0  0  0
   10.2148   -3.4364   25.4200 C   0  0  0  0  0  0  0  0  0  0  0  0
    9.7853   -1.1840   24.4927 C   0  0  0  0  0  0  0  0  0  0  0  0
    5.0276   -8.5227   17.5352 C   0  0  0  0  0  0  0  0  0  0  0  0
    9.8187   -2.0895   25.5800 C   0  0  0  0  0  0  0  0  0  0  0  0
    5.6473   -8.7216   15.3158 C   0  0  0  0  0  0  0  0  0  0  0  0
   10.7581   -3.1233   19.4720 N   0  0  0  0  0  0  0  0  0  0  0  0
    9.9571   -4.0573   16.8866 C   0  0  0  0  0  0  0  0  0  0  0  0
    7.6213   -6.5618   16.0087 C   0  0  0  0  0  0  0  0  0  0  0  0
   10.8583   -2.6527   20.7222 C   0  0  0  0  0  0  0  0  0  0  0  0
   10.6412   -3.5089   21.7936 C   0  0  0  0  0  0  0  0  0  0  0  0
   10.4972   -3.8968   24.1589 C   0  0  0  0  0  0  0  0  0  0  0  0
    5.9260   -8.2736   16.5517 C   0  0  0  0  0  0  0  0  0  0  0  0
    3.8816   -9.1166   17.2493 C   0  0  0  0  0  0  0  0  0  0  0  0
   10.1297   -1.6575   23.2324 C   0  0  0  0  0  0  0  0  0  0  0  0
    9.4684   -1.6929   26.7263 F   0  0  0  0  0  0  0  0  0  0  0  0
    7.7963   -7.7906   17.9837 C   0  0  0  0  0  0  0  0  0  0  0  0
   10.5884   -3.0725   16.7902 O   0  0  0  0  0  0  0  0  0  0  0  0
   10.4323   -5.3494   20.3516 C   0  0  0  0  0  0  0  0  0  0  0  0
    7.1156   -7.5454   16.8218 C   0  0  0  0  0  0  0  0  0  0  0  0
   10.3885   -4.4388   19.2773 C   0  0  0  0  0  0  0  0  0  0  0  0
    4.5160   -9.3822   15.0841 C   0  0  0  0  0  0  0  0  0  0  0  0
  1  3  4  0
  1 24  4  0
  2  6  4  0
  2 15  4  0
  3  5  4  0
  3  6  4  0
  4 21  4  0
  4 29  4  0
  5 15  4  0
  5 28  1  0
  6 16  4  0
  7 18  4  0
  7 26  4  0
  8 18  1  0
  8 19  4  0
  8 22  4  0
  9 12  4  0
  9 19  4  0
 10 12  4  0
 10 22  4  0
 11 20  4  0
 11 21  4  0
 12 23  1  0
 13 20  4  0
 13 29  4  0
 14 17  4  0
 14 28  4  0
 15 25  2  0
 16 27  4  0
 17 18  4  0
 20 27  1  0
 24 27  4  0
 26 28  4  0
M  END
$$$$

 Created by Python create_sdf_string function

 29 33  0  0  0  0  0  0  0  0999 V2000
    8.8270   -7.0288   18.4251 C   0  0  0  0  0  0  0  0  0  0  0  0
    9.1576   -4.6236   15.8860 O   0  0  0  0  0  0  0  0  0  0  0  0
    9.1509   -5.9108   17.7177 C   0  0  0  0  0  0  0  0  0  0  0  0
    3.6373   -9.5349   16.0582 N   0  0  0  0  0  0  0  0  0  0  0  0
    9.9275   -4.8001   18.0438 N   0  0  0  0  0  0  0  0  0  0  0  0
    8.5908   -5.7425   16.4412 C   0  0  0  0  0  0  0  0  0  0  0  0
   10.5993   -4.8981   21.6068 C   0  0  0  0  0  0  0  0  0  0  0  0
   10.4258   -3.0106   23.0998 C   0  0  0  0  0  0  0  0  0  0  0  0
   10.2148   -3.4364   25.4200 C   0  0  0  0  0  0  0  0  0  0  0  0
    9.7853   -1.1840   24.4927 C   0  0  0  0  0  0  0  0  0  0  0  0
    5.0276   -8.5227   17.5352 C   0  0  0  0  0  0  0  0  0  0  0  0
    9.8187   -2.0895   25.5800 C   0  0  0  0  0  0  0  0  0  0  0  0
    5.6473   -8.7216   15.3158 C   0  0  0  0  0  0  0  0  0  0  0  0
   10.7581   -3.1233   19.4720 N   0  0  0  0  0  0  0  0  0  0  0  0
    9.9571   -4.0573   16.8866 C   0  0  0  0  0  0  0  0  0  0  0  0
    7.6213   -6.5618   16.0087 C   0  0  0  0  0  0  0  0  0  0  0  0
   10.8583   -2.6527   20.7222 C   0  0  0  0  0  0  0  0  0  0  0  0
   10.6412   -3.5089   21.7936 C   0  0  0  0  0  0  0  0  0  0  0  0
   10.4972   -3.8968   24.1589 C   0  0  0  0  0  0  0  0  0  0  0  0
    5.9260   -8.2736   16.5517 C   0  0  0  0  0  0  0  0  0  0  0  0
    3.8816   -9.1166   17.2493 C   0  0  0  0  0  0  0  0  0  0  0  0
   10.1297   -1.6575   23.2324 C   0  0  0  0  0  0  0  0  0  0  0  0
    9.4684   -1.6929   26.7263 F   0  0  0  0  0  0  0  0  0  0  0  0
    7.7963   -7.7906   17.9837 C   0  0  0  0  0  0  0  0  0  0  0  0
   10.5884   -3.0725   16.7902 O   0  0  0  0  0  0  0  0  0  0  0  0
   10.4323   -5.3494   20.3516 C   0  0  0  0  0  0  0  0  0  0  0  0
    7.1156   -7.5454   16.8218 C   0  0  0  0  0  0  0  0  0  0  0  0
   10.3885   -4.4388   19.2773 C   0  0  0  0  0  0  0  0  0  0  0  0
    4.5160   -9.3822   15.0841 C   0  0  0  0  0  0  0  0  0  0  0  0
  1  3  4  0
  1 24  4  0
  2  6  4  0
  2 15  4  0
  3  5  4  0
  3  6  4  0
  4 21  4  0
  4 29  4  0
  5 15  4  0
  5 28  1  0
  6 16  4  0
  7 18  4  0
  7 26  4  0
  8 18  1  0
  8 19  4  0
  8 22  4  0
  9 12  4  0
  9 19  4  0
 10 12  4  0
 10 22  4  0
 11 20  4  0
 11 21  4  0
 12 23  1  0
 13 20  4  0
 13 29  4  0
 14 17  4  0
 14 28  4  0
 15 25  2  0
 16 27  4  0
 17 18  4  0
 20 27  1  0
 24 27  4  0
 26 28  4  0
M  END
$$$$

 Created by Python create_sdf_string function

 29 33  0  0  0  0  0  0  0  0999 V2000
    8.8270   -7.0288   18.4251 C   0  0  0  0  0  0  0  0  0  0  0  0
    9.1576   -4.6236   15.8860 O   0  0  0  0  0  0  0  0  0  0  0  0
    9.1509   -5.9108   17.7177 C   0  0  0  0  0  0  0  0  0  0  0  0
    3.6373   -9.5349   16.0582 N   0  0  0  0  0  0  0  0  0  0  0  0
    9.9275   -4.8001   18.0438 N   0  0  0  0  0  0  0  0  0  0  0  0
    8.5908   -5.7425   16.4412 C   0  0  0  0  0  0  0  0  0  0  0  0
   10.5993   -4.8981   21.6068 C   0  0  0  0  0  0  0  0  0  0  0  0
   10.4258   -3.0106   23.0998 C   0  0  0  0  0  0  0  0  0  0  0  0
   10.2148   -3.4364   25.4200 C   0  0  0  0  0  0  0  0  0  0  0  0
    9.7853   -1.1840   24.4927 C   0  0  0  0  0  0  0  0  0  0  0  0
    5.0276   -8.5227   17.5352 C   0  0  0  0  0  0  0  0  0  0  0  0
    9.8187   -2.0895   25.5800 C   0  0  0  0  0  0  0  0  0  0  0  0
    5.6473   -8.7216   15.3158 C   0  0  0  0  0  0  0  0  0  0  0  0
   10.7581   -3.1233   19.4720 N   0  0  0  0  0  0  0  0  0  0  0  0
    9.9571   -4.0573   16.8866 C   0  0  0  0  0  0  0  0  0  0  0  0
    7.6213   -6.5618   16.0087 C   0  0  0  0  0  0  0  0  0  0  0  0
   10.8583   -2.6527   20.7222 C   0  0  0  0  0  0  0  0  0  0  0  0
   10.6412   -3.5089   21.7936 C   0  0  0  0  0  0  0  0  0  0  0  0
   10.4972   -3.8968   24.1589 C   0  0  0  0  0  0  0  0  0  0  0  0
    5.9260   -8.2736   16.5517 C   0  0  0  0  0  0  0  0  0  0  0  0
    3.8816   -9.1166   17.2493 C   0  0  0  0  0  0  0  0  0  0  0  0
   10.1297   -1.6575   23.2324 C   0  0  0  0  0  0  0  0  0  0  0  0
    9.4684   -1.6929   26.7263 F   0  0  0  0  0  0  0  0  0  0  0  0
    7.7963   -7.7906   17.9837 C   0  0  0  0  0  0  0  0  0  0  0  0
   10.5884   -3.0725   16.7902 O   0  0  0  0  0  0  0  0  0  0  0  0
   10.4323   -5.3494   20.3516 C   0  0  0  0  0  0  0  0  0  0  0  0
    7.1156   -7.5454   16.8218 C   0  0  0  0  0  0  0  0  0  0  0  0
   10.3885   -4.4388   19.2773 C   0  0  0  0  0  0  0  0  0  0  0  0
    4.5160   -9.3822   15.0841 C   0  0  0  0  0  0  0  0  0  0  0  0
  1  3  4  0
  1 24  4  0
  2  6  4  0
  2 15  4  0
  3  5  4  0
  3  6  4  0
  4 21  4  0
  4 29  4  0
  5 15  4  0
  5 28  1  0
  6 16  4  0
  7 18  4  0
  7 26  4  0
  8 18  1  0
  8 19  4  0
  8 22  4  0
  9 12  4  0
  9 19  4  0
 10 12  4  0
 10 22  4  0
 11 20  4  0
 11 21  4  0
 12 23  1  0
 13 20  4  0
 13 29  4  0
 14 17  4  0
 14 28  4  0
 15 25  2  0
 16 27  4  0
 17 18  4  0
 20 27  1  0
 24 27  4  0
 26 28  4  0
M  END
$$$$

 Created by Python create_sdf_string function

 29 33  0  0  0  0  0  0  0  0999 V2000
    8.8270   -7.0288   18.4251 C   0  0  0  0  0  0  0  0  0  0  0  0
    9.1576   -4.6236   15.8860 O   0  0  0  0  0  0  0  0  0  0  0  0
    9.1509   -5.9108   17.7177 C   0  0  0  0  0  0  0  0  0  0  0  0
    3.6373   -9.5349   16.0582 N   0  0  0  0  0  0  0  0  0  0  0  0
    9.9275   -4.8001   18.0438 N   0  0  0  0  0  0  0  0  0  0  0  0
    8.5908   -5.7425   16.4412 C   0  0  0  0  0  0  0  0  0  0  0  0
   10.5993   -4.8981   21.6068 C   0  0  0  0  0  0  0  0  0  0  0  0
   10.4258   -3.0106   23.0998 C   0  0  0  0  0  0  0  0  0  0  0  0
   10.2148   -3.4364   25.4200 C   0  0  0  0  0  0  0  0  0  0  0  0
    9.7853   -1.1840   24.4927 C   0  0  0  0  0  0  0  0  0  0  0  0
    5.0276   -8.5227   17.5352 C   0  0  0  0  0  0  0  0  0  0  0  0
    9.8187   -2.0895   25.5800 C   0  0  0  0  0  0  0  0  0  0  0  0
    5.6473   -8.7216   15.3158 C   0  0  0  0  0  0  0  0  0  0  0  0
   10.7581   -3.1233   19.4720 N   0  0  0  0  0  0  0  0  0  0  0  0
    9.9571   -4.0573   16.8866 C   0  0  0  0  0  0  0  0  0  0  0  0
    7.6213   -6.5618   16.0087 C   0  0  0  0  0  0  0  0  0  0  0  0
   10.8583   -2.6527   20.7222 C   0  0  0  0  0  0  0  0  0  0  0  0
   10.6412   -3.5089   21.7936 C   0  0  0  0  0  0  0  0  0  0  0  0
   10.4972   -3.8968   24.1589 C   0  0  0  0  0  0  0  0  0  0  0  0
    5.9260   -8.2736   16.5517 C   0  0  0  0  0  0  0  0  0  0  0  0
    3.8816   -9.1166   17.2493 C   0  0  0  0  0  0  0  0  0  0  0  0
   10.1297   -1.6575   23.2324 C   0  0  0  0  0  0  0  0  0  0  0  0
    9.4684   -1.6929   26.7263 F   0  0  0  0  0  0  0  0  0  0  0  0
    7.7963   -7.7906   17.9837 C   0  0  0  0  0  0  0  0  0  0  0  0
   10.5884   -3.0725   16.7902 O   0  0  0  0  0  0  0  0  0  0  0  0
   10.4323   -5.3494   20.3516 C   0  0  0  0  0  0  0  0  0  0  0  0
    7.1156   -7.5454   16.8218 C   0  0  0  0  0  0  0  0  0  0  0  0
   10.3885   -4.4388   19.2773 C   0  0  0  0  0  0  0  0  0  0  0  0
    4.5160   -9.3822   15.0841 C   0  0  0  0  0  0  0  0  0  0  0  0
  1  3  4  0
  1 24  4  0
  2  6  4  0
  2 15  4  0
  3  5  4  0
  3  6  4  0
  4 21  4  0
  4 29  4  0
  5 15  4  0
  5 28  1  0
  6 16  4  0
  7 18  4  0
  7 26  4  0
  8 18  1  0
  8 19  4  0
  8 22  4  0
  9 12  4  0
  9 19  4  0
 10 12  4  0
 10 22  4  0
 11 20  4  0
 11 21  4  0
 12 23  1  0
 13 20  4  0
 13 29  4  0
 14 17  4  0
 14 28  4  0
 15 25  2  0
 16 27  4  0
 17 18  4  0
 20 27  1  0
 24 27  4  0
 26 28  4  0
M  END
$$$$

 Created by Python create_sdf_string function

 29 33  0  0  0  0  0  0  0  0999 V2000
    8.8270   -7.0288   18.4251 C   0  0  0  0  0  0  0  0  0  0  0  0
    9.1576   -4.6236   15.8860 O   0  0  0  0  0  0  0  0  0  0  0  0
    9.1509   -5.9108   17.7177 C   0  0  0  0  0  0  0  0  0  0  0  0
    3.6373   -9.5349   16.0582 N   0  0  0  0  0  0  0  0  0  0  0  0
    9.9275   -4.8001   18.0438 N   0  0  0  0  0  0  0  0  0  0  0  0
    8.5908   -5.7425   16.4412 C   0  0  0  0  0  0  0  0  0  0  0  0
   10.5993   -4.8981   21.6068 C   0  0  0  0  0  0  0  0  0  0  0  0
   10.4258   -3.0106   23.0998 C   0  0  0  0  0  0  0  0  0  0  0  0
   10.2148   -3.4364   25.4200 C   0  0  0  0  0  0  0  0  0  0  0  0
    9.7853   -1.1840   24.4927 C   0  0  0  0  0  0  0  0  0  0  0  0
    5.0276   -8.5227   17.5352 C   0  0  0  0  0  0  0  0  0  0  0  0
    9.8187   -2.0895   25.5800 C   0  0  0  0  0  0  0  0  0  0  0  0
    5.6473   -8.7216   15.3158 C   0  0  0  0  0  0  0  0  0  0  0  0
   10.7581   -3.1233   19.4720 N   0  0  0  0  0  0  0  0  0  0  0  0
    9.9571   -4.0573   16.8866 C   0  0  0  0  0  0  0  0  0  0  0  0
    7.6213   -6.5618   16.0087 C   0  0  0  0  0  0  0  0  0  0  0  0
   10.8583   -2.6527   20.7222 C   0  0  0  0  0  0  0  0  0  0  0  0
   10.6412   -3.5089   21.7936 C   0  0  0  0  0  0  0  0  0  0  0  0
   10.4972   -3.8968   24.1589 C   0  0  0  0  0  0  0  0  0  0  0  0
    5.9260   -8.2736   16.5517 C   0  0  0  0  0  0  0  0  0  0  0  0
    3.8816   -9.1166   17.2493 C   0  0  0  0  0  0  0  0  0  0  0  0
   10.1297   -1.6575   23.2324 C   0  0  0  0  0  0  0  0  0  0  0  0
    9.4684   -1.6929   26.7263 F   0  0  0  0  0  0  0  0  0  0  0  0
    7.7963   -7.7906   17.9837 C   0  0  0  0  0  0  0  0  0  0  0  0
   10.5884   -3.0725   16.7902 O   0  0  0  0  0  0  0  0  0  0  0  0
   10.4323   -5.3494   20.3516 C   0  0  0  0  0  0  0  0  0  0  0  0
    7.1156   -7.5454   16.8218 C   0  0  0  0  0  0  0  0  0  0  0  0
   10.3885   -4.4388   19.2773 C   0  0  0  0  0  0  0  0  0  0  0  0
    4.5160   -9.3822   15.0841 C   0  0  0  0  0  0  0  0  0  0  0  0
  1  3  4  0
  1 24  4  0
  2  6  4  0
  2 15  4  0
  3  5  4  0
  3  6  4  0
  4 21  4  0
  4 29  4  0
  5 15  4  0
  5 28  1  0
  6 16  4  0
  7 18  4  0
  7 26  4  0
  8 18  1  0
  8 19  4  0
  8 22  4  0
  9 12  4  0
  9 19  4  0
 10 12  4  0
 10 22  4  0
 11 20  4  0
 11 21  4  0
 12 23  1  0
 13 20  4  0
 13 29  4  0
 14 17  4  0
 14 28  4  0
 15 25  2  0
 16 27  4  0
 17 18  4  0
 20 27  1  0
 24 27  4  0
 26 28  4  0
M  END
$$$$

 Created by Python create_sdf_string function

 29 33  0  0  0  0  0  0  0  0999 V2000
    8.8270   -7.0288   18.4251 C   0  0  0  0  0  0  0  0  0  0  0  0
    9.1576   -4.6236   15.8860 O   0  0  0  0  0  0  0  0  0  0  0  0
    9.1509   -5.9108   17.7177 C   0  0  0  0  0  0  0  0  0  0  0  0
    3.6373   -9.5349   16.0582 N   0  0  0  0  0  0  0  0  0  0  0  0
    9.9275   -4.8001   18.0438 N   0  0  0  0  0  0  0  0  0  0  0  0
    8.5908   -5.7425   16.4412 C   0  0  0  0  0  0  0  0  0  0  0  0
   10.5993   -4.8981   21.6068 C   0  0  0  0  0  0  0  0  0  0  0  0
   10.4258   -3.0106   23.0998 C   0  0  0  0  0  0  0  0  0  0  0  0
   10.2148   -3.4364   25.4200 C   0  0  0  0  0  0  0  0  0  0  0  0
    9.7853   -1.1840   24.4927 C   0  0  0  0  0  0  0  0  0  0  0  0
    5.0276   -8.5227   17.5352 C   0  0  0  0  0  0  0  0  0  0  0  0
    9.8187   -2.0895   25.5800 C   0  0  0  0  0  0  0  0  0  0  0  0
    5.6473   -8.7216   15.3158 C   0  0  0  0  0  0  0  0  0  0  0  0
   10.7581   -3.1233   19.4720 N   0  0  0  0  0  0  0  0  0  0  0  0
    9.9571   -4.0573   16.8866 C   0  0  0  0  0  0  0  0  0  0  0  0
    7.6213   -6.5618   16.0087 C   0  0  0  0  0  0  0  0  0  0  0  0
   10.8583   -2.6527   20.7222 C   0  0  0  0  0  0  0  0  0  0  0  0
   10.6412   -3.5089   21.7936 C   0  0  0  0  0  0  0  0  0  0  0  0
   10.4972   -3.8968   24.1589 C   0  0  0  0  0  0  0  0  0  0  0  0
    5.9260   -8.2736   16.5517 C   0  0  0  0  0  0  0  0  0  0  0  0
    3.8816   -9.1166   17.2493 C   0  0  0  0  0  0  0  0  0  0  0  0
   10.1297   -1.6575   23.2324 C   0  0  0  0  0  0  0  0  0  0  0  0
    9.4684   -1.6929   26.7263 F   0  0  0  0  0  0  0  0  0  0  0  0
    7.7963   -7.7906   17.9837 C   0  0  0  0  0  0  0  0  0  0  0  0
   10.5884   -3.0725   16.7902 O   0  0  0  0  0  0  0  0  0  0  0  0
   10.4323   -5.3494   20.3516 C   0  0  0  0  0  0  0  0  0  0  0  0
    7.1156   -7.5454   16.8218 C   0  0  0  0  0  0  0  0  0  0  0  0
   10.3885   -4.4388   19.2773 C   0  0  0  0  0  0  0  0  0  0  0  0
    4.5160   -9.3822   15.0841 C   0  0  0  0  0  0  0  0  0  0  0  0
  1  3  4  0
  1 24  4  0
  2  6  4  0
  2 15  4  0
  3  5  4  0
  3  6  4  0
  4 21  4  0
  4 29  4  0
  5 15  4  0
  5 28  1  0
  6 16  4  0
  7 18  4  0
  7 26  4  0
  8 18  1  0
  8 19  4  0
  8 22  4  0
  9 12  4  0
  9 19  4  0
 10 12  4  0
 10 22  4  0
 11 20  4  0
 11 21  4  0
 12 23  1  0
 13 20  4  0
 13 29  4  0
 14 17  4  0
 14 28  4  0
 15 25  2  0
 16 27  4  0
 17 18  4  0
 20 27  1  0
 24 27  4  0
 26 28  4  0
M  END
$$$$

 Created by Python create_sdf_string function

 29 33  0  0  0  0  0  0  0  0999 V2000
    8.8270   -7.0288   18.4251 C   0  0  0  0  0  0  0  0  0  0  0  0
    9.1576   -4.6236   15.8860 O   0  0  0  0  0  0  0  0  0  0  0  0
    9.1509   -5.9108   17.7177 C   0  0  0  0  0  0  0  0  0  0  0  0
    3.6373   -9.5349   16.0582 N   0  0  0  0  0  0  0  0  0  0  0  0
    9.9275   -4.8001   18.0438 N   0  0  0  0  0  0  0  0  0  0  0  0
    8.5908   -5.7425   16.4412 C   0  0  0  0  0  0  0  0  0  0  0  0
   10.5993   -4.8981   21.6068 C   0  0  0  0  0  0  0  0  0  0  0  0
   10.4258   -3.0106   23.0998 C   0  0  0  0  0  0  0  0  0  0  0  0
   10.2148   -3.4364   25.4200 C   0  0  0  0  0  0  0  0  0  0  0  0
    9.7853   -1.1840   24.4927 C   0  0  0  0  0  0  0  0  0  0  0  0
    5.0276   -8.5227   17.5352 C   0  0  0  0  0  0  0  0  0  0  0  0
    9.8187   -2.0895   25.5800 C   0  0  0  0  0  0  0  0  0  0  0  0
    5.6473   -8.7216   15.3158 C   0  0  0  0  0  0  0  0  0  0  0  0
   10.7581   -3.1233   19.4720 N   0  0  0  0  0  0  0  0  0  0  0  0
    9.9571   -4.0573   16.8866 C   0  0  0  0  0  0  0  0  0  0  0  0
    7.6213   -6.5618   16.0087 C   0  0  0  0  0  0  0  0  0  0  0  0
   10.8583   -2.6527   20.7222 C   0  0  0  0  0  0  0  0  0  0  0  0
   10.6412   -3.5089   21.7936 C   0  0  0  0  0  0  0  0  0  0  0  0
   10.4972   -3.8968   24.1589 C   0  0  0  0  0  0  0  0  0  0  0  0
    5.9260   -8.2736   16.5517 C   0  0  0  0  0  0  0  0  0  0  0  0
    3.8816   -9.1166   17.2493 C   0  0  0  0  0  0  0  0  0  0  0  0
   10.1297   -1.6575   23.2324 C   0  0  0  0  0  0  0  0  0  0  0  0
    9.4684   -1.6929   26.7263 F   0  0  0  0  0  0  0  0  0  0  0  0
    7.7963   -7.7906   17.9837 C   0  0  0  0  0  0  0  0  0  0  0  0
   10.5884   -3.0725   16.7902 O   0  0  0  0  0  0  0  0  0  0  0  0
   10.4323   -5.3494   20.3516 C   0  0  0  0  0  0  0  0  0  0  0  0
    7.1156   -7.5454   16.8218 C   0  0  0  0  0  0  0  0  0  0  0  0
   10.3885   -4.4388   19.2773 C   0  0  0  0  0  0  0  0  0  0  0  0
    4.5160   -9.3822   15.0841 C   0  0  0  0  0  0  0  0  0  0  0  0
  1  3  4  0
  1 24  4  0
  2  6  4  0
  2 15  4  0
  3  5  4  0
  3  6  4  0
  4 21  4  0
  4 29  4  0
  5 15  4  0
  5 28  1  0
  6 16  4  0
  7 18  4  0
  7 26  4  0
  8 18  1  0
  8 19  4  0
  8 22  4  0
  9 12  4  0
  9 19  4  0
 10 12  4  0
 10 22  4  0
 11 20  4  0
 11 21  4  0
 12 23  1  0
 13 20  4  0
 13 29  4  0
 14 17  4  0
 14 28  4  0
 15 25  2  0
 16 27  4  0
 17 18  4  0
 20 27  1  0
 24 27  4  0
 26 28  4  0
M  END
$$$$

 Created by Python create_sdf_string function

 29 33  0  0  0  0  0  0  0  0999 V2000
    8.8270   -7.0288   18.4251 C   0  0  0  0  0  0  0  0  0  0  0  0
    9.1576   -4.6236   15.8860 O   0  0  0  0  0  0  0  0  0  0  0  0
    9.1509   -5.9108   17.7177 C   0  0  0  0  0  0  0  0  0  0  0  0
    3.6373   -9.5349   16.0582 N   0  0  0  0  0  0  0  0  0  0  0  0
    9.9275   -4.8001   18.0438 N   0  0  0  0  0  0  0  0  0  0  0  0
    8.5908   -5.7425   16.4412 C   0  0  0  0  0  0  0  0  0  0  0  0
   10.5993   -4.8981   21.6068 C   0  0  0  0  0  0  0  0  0  0  0  0
   10.4258   -3.0106   23.0998 C   0  0  0  0  0  0  0  0  0  0  0  0
   10.2148   -3.4364   25.4200 C   0  0  0  0  0  0  0  0  0  0  0  0
    9.7853   -1.1840   24.4927 C   0  0  0  0  0  0  0  0  0  0  0  0
    5.0276   -8.5227   17.5352 C   0  0  0  0  0  0  0  0  0  0  0  0
    9.8187   -2.0895   25.5800 C   0  0  0  0  0  0  0  0  0  0  0  0
    5.6473   -8.7216   15.3158 C   0  0  0  0  0  0  0  0  0  0  0  0
   10.7581   -3.1233   19.4720 N   0  0  0  0  0  0  0  0  0  0  0  0
    9.9571   -4.0573   16.8866 C   0  0  0  0  0  0  0  0  0  0  0  0
    7.6213   -6.5618   16.0087 C   0  0  0  0  0  0  0  0  0  0  0  0
   10.8583   -2.6527   20.7222 C   0  0  0  0  0  0  0  0  0  0  0  0
   10.6412   -3.5089   21.7936 C   0  0  0  0  0  0  0  0  0  0  0  0
   10.4972   -3.8968   24.1589 C   0  0  0  0  0  0  0  0  0  0  0  0
    5.9260   -8.2736   16.5517 C   0  0  0  0  0  0  0  0  0  0  0  0
    3.8816   -9.1166   17.2493 C   0  0  0  0  0  0  0  0  0  0  0  0
   10.1297   -1.6575   23.2324 C   0  0  0  0  0  0  0  0  0  0  0  0
    9.4684   -1.6929   26.7263 F   0  0  0  0  0  0  0  0  0  0  0  0
    7.7963   -7.7906   17.9837 C   0  0  0  0  0  0  0  0  0  0  0  0
   10.5884   -3.0725   16.7902 O   0  0  0  0  0  0  0  0  0  0  0  0
   10.4323   -5.3494   20.3516 C   0  0  0  0  0  0  0  0  0  0  0  0
    7.1156   -7.5454   16.8218 C   0  0  0  0  0  0  0  0  0  0  0  0
   10.3885   -4.4388   19.2773 C   0  0  0  0  0  0  0  0  0  0  0  0
    4.5160   -9.3822   15.0841 C   0  0  0  0  0  0  0  0  0  0  0  0
  1  3  4  0
  1 24  4  0
  2  6  4  0
  2 15  4  0
  3  5  4  0
  3  6  4  0
  4 21  4  0
  4 29  4  0
  5 15  4  0
  5 28  1  0
  6 16  4  0
  7 18  4  0
  7 26  4  0
  8 18  1  0
  8 19  4  0
  8 22  4  0
  9 12  4  0
  9 19  4  0
 10 12  4  0
 10 22  4  0
 11 20  4  0
 11 21  4  0
 12 23  1  0
 13 20  4  0
 13 29  4  0
 14 17  4  0
 14 28  4  0
 15 25  2  0
 16 27  4  0
 17 18  4  0
 20 27  1  0
 24 27  4  0
 26 28  4  0
M  END
$$$$

 Created by Python create_sdf_string function

 29 33  0  0  0  0  0  0  0  0999 V2000
    8.8270   -7.0288   18.4251 C   0  0  0  0  0  0  0  0  0  0  0  0
    9.1576   -4.6236   15.8860 O   0  0  0  0  0  0  0  0  0  0  0  0
    9.1509   -5.9108   17.7177 C   0  0  0  0  0  0  0  0  0  0  0  0
    3.6373   -9.5349   16.0582 N   0  0  0  0  0  0  0  0  0  0  0  0
    9.9275   -4.8001   18.0438 N   0  0  0  0  0  0  0  0  0  0  0  0
    8.5908   -5.7425   16.4412 C   0  0  0  0  0  0  0  0  0  0  0  0
   10.5993   -4.8981   21.6068 C   0  0  0  0  0  0  0  0  0  0  0  0
   10.4258   -3.0106   23.0998 C   0  0  0  0  0  0  0  0  0  0  0  0
   10.2148   -3.4364   25.4200 C   0  0  0  0  0  0  0  0  0  0  0  0
    9.7853   -1.1840   24.4927 C   0  0  0  0  0  0  0  0  0  0  0  0
    5.0276   -8.5227   17.5352 C   0  0  0  0  0  0  0  0  0  0  0  0
    9.8187   -2.0895   25.5800 C   0  0  0  0  0  0  0  0  0  0  0  0
    5.6473   -8.7216   15.3158 C   0  0  0  0  0  0  0  0  0  0  0  0
   10.7581   -3.1233   19.4720 N   0  0  0  0  0  0  0  0  0  0  0  0
    9.9571   -4.0573   16.8866 C   0  0  0  0  0  0  0  0  0  0  0  0
    7.6213   -6.5618   16.0087 C   0  0  0  0  0  0  0  0  0  0  0  0
   10.8583   -2.6527   20.7222 C   0  0  0  0  0  0  0  0  0  0  0  0
   10.6412   -3.5089   21.7936 C   0  0  0  0  0  0  0  0  0  0  0  0
   10.4972   -3.8968   24.1589 C   0  0  0  0  0  0  0  0  0  0  0  0
    5.9260   -8.2736   16.5517 C   0  0  0  0  0  0  0  0  0  0  0  0
    3.8816   -9.1166   17.2493 C   0  0  0  0  0  0  0  0  0  0  0  0
   10.1297   -1.6575   23.2324 C   0  0  0  0  0  0  0  0  0  0  0  0
    9.4684   -1.6929   26.7263 F   0  0  0  0  0  0  0  0  0  0  0  0
    7.7963   -7.7906   17.9837 C   0  0  0  0  0  0  0  0  0  0  0  0
   10.5884   -3.0725   16.7902 O   0  0  0  0  0  0  0  0  0  0  0  0
   10.4323   -5.3494   20.3516 C   0  0  0  0  0  0  0  0  0  0  0  0
    7.1156   -7.5454   16.8218 C   0  0  0  0  0  0  0  0  0  0  0  0
   10.3885   -4.4388   19.2773 C   0  0  0  0  0  0  0  0  0  0  0  0
    4.5160   -9.3822   15.0841 C   0  0  0  0  0  0  0  0  0  0  0  0
  1  3  4  0
  1 24  4  0
  2  6  4  0
  2 15  4  0
  3  5  4  0
  3  6  4  0
  4 21  4  0
  4 29  4  0
  5 15  4  0
  5 28  1  0
  6 16  4  0
  7 18  4  0
  7 26  4  0
  8 18  1  0
  8 19  4  0
  8 22  4  0
  9 12  4  0
  9 19  4  0
 10 12  4  0
 10 22  4  0
 11 20  4  0
 11 21  4  0
 12 23  1  0
 13 20  4  0
 13 29  4  0
 14 17  4  0
 14 28  4  0
 15 25  2  0
 16 27  4  0
 17 18  4  0
 20 27  1  0
 24 27  4  0
 26 28  4  0
M  END
$$$$

 Created by Python create_sdf_string function

 29 33  0  0  0  0  0  0  0  0999 V2000
    8.8270   -7.0288   18.4251 C   0  0  0  0  0  0  0  0  0  0  0  0
    9.1576   -4.6236   15.8860 O   0  0  0  0  0  0  0  0  0  0  0  0
    9.1509   -5.9108   17.7177 C   0  0  0  0  0  0  0  0  0  0  0  0
    3.6373   -9.5349   16.0582 N   0  0  0  0  0  0  0  0  0  0  0  0
    9.9275   -4.8001   18.0438 N   0  0  0  0  0  0  0  0  0  0  0  0
    8.5908   -5.7425   16.4412 C   0  0  0  0  0  0  0  0  0  0  0  0
   10.5993   -4.8981   21.6068 C   0  0  0  0  0  0  0  0  0  0  0  0
   10.4258   -3.0106   23.0998 C   0  0  0  0  0  0  0  0  0  0  0  0
   10.2148   -3.4364   25.4200 C   0  0  0  0  0  0  0  0  0  0  0  0
    9.7853   -1.1840   24.4927 C   0  0  0  0  0  0  0  0  0  0  0  0
    5.0276   -8.5227   17.5352 C   0  0  0  0  0  0  0  0  0  0  0  0
    9.8187   -2.0895   25.5800 C   0  0  0  0  0  0  0  0  0  0  0  0
    5.6473   -8.7216   15.3158 C   0  0  0  0  0  0  0  0  0  0  0  0
   10.7581   -3.1233   19.4720 N   0  0  0  0  0  0  0  0  0  0  0  0
    9.9571   -4.0573   16.8866 C   0  0  0  0  0  0  0  0  0  0  0  0
    7.6213   -6.5618   16.0087 C   0  0  0  0  0  0  0  0  0  0  0  0
   10.8583   -2.6527   20.7222 C   0  0  0  0  0  0  0  0  0  0  0  0
   10.6412   -3.5089   21.7936 C   0  0  0  0  0  0  0  0  0  0  0  0
   10.4972   -3.8968   24.1589 C   0  0  0  0  0  0  0  0  0  0  0  0
    5.9260   -8.2736   16.5517 C   0  0  0  0  0  0  0  0  0  0  0  0
    3.8816   -9.1166   17.2493 C   0  0  0  0  0  0  0  0  0  0  0  0
   10.1297   -1.6575   23.2324 C   0  0  0  0  0  0  0  0  0  0  0  0
    9.4684   -1.6929   26.7263 F   0  0  0  0  0  0  0  0  0  0  0  0
    7.7963   -7.7906   17.9837 C   0  0  0  0  0  0  0  0  0  0  0  0
   10.5884   -3.0725   16.7902 O   0  0  0  0  0  0  0  0  0  0  0  0
   10.4323   -5.3494   20.3516 C   0  0  0  0  0  0  0  0  0  0  0  0
    7.1156   -7.5454   16.8218 C   0  0  0  0  0  0  0  0  0  0  0  0
   10.3885   -4.4388   19.2773 C   0  0  0  0  0  0  0  0  0  0  0  0
    4.5160   -9.3822   15.0841 C   0  0  0  0  0  0  0  0  0  0  0  0
  1  3  4  0
  1 24  4  0
  2  6  4  0
  2 15  4  0
  3  5  4  0
  3  6  4  0
  4 21  4  0
  4 29  4  0
  5 15  4  0
  5 28  1  0
  6 16  4  0
  7 18  4  0
  7 26  4  0
  8 18  1  0
  8 19  4  0
  8 22  4  0
  9 12  4  0
  9 19  4  0
 10 12  4  0
 10 22  4  0
 11 20  4  0
 11 21  4  0
 12 23  1  0
 13 20  4  0
 13 29  4  0
 14 17  4  0
 14 28  4  0
 15 25  2  0
 16 27  4  0
 17 18  4  0
 20 27  1  0
 24 27  4  0
 26 28  4  0
M  END
$$$$

 Created by Python create_sdf_string function

 29 33  0  0  0  0  0  0  0  0999 V2000
    8.8270   -7.0288   18.4251 C   0  0  0  0  0  0  0  0  0  0  0  0
    9.1576   -4.6236   15.8860 O   0  0  0  0  0  0  0  0  0  0  0  0
    9.1509   -5.9108   17.7177 C   0  0  0  0  0  0  0  0  0  0  0  0
    3.6373   -9.5349   16.0582 N   0  0  0  0  0  0  0  0  0  0  0  0
    9.9275   -4.8001   18.0438 N   0  0  0  0  0  0  0  0  0  0  0  0
    8.5908   -5.7425   16.4412 C   0  0  0  0  0  0  0  0  0  0  0  0
   10.5993   -4.8981   21.6068 C   0  0  0  0  0  0  0  0  0  0  0  0
   10.4258   -3.0106   23.0998 C   0  0  0  0  0  0  0  0  0  0  0  0
   10.2148   -3.4364   25.4200 C   0  0  0  0  0  0  0  0  0  0  0  0
    9.7853   -1.1840   24.4927 C   0  0  0  0  0  0  0  0  0  0  0  0
    5.0276   -8.5227   17.5352 C   0  0  0  0  0  0  0  0  0  0  0  0
    9.8187   -2.0895   25.5800 C   0  0  0  0  0  0  0  0  0  0  0  0
    5.6473   -8.7216   15.3158 C   0  0  0  0  0  0  0  0  0  0  0  0
   10.7581   -3.1233   19.4720 N   0  0  0  0  0  0  0  0  0  0  0  0
    9.9571   -4.0573   16.8866 C   0  0  0  0  0  0  0  0  0  0  0  0
    7.6213   -6.5618   16.0087 C   0  0  0  0  0  0  0  0  0  0  0  0
   10.8583   -2.6527   20.7222 C   0  0  0  0  0  0  0  0  0  0  0  0
   10.6412   -3.5089   21.7936 C   0  0  0  0  0  0  0  0  0  0  0  0
   10.4972   -3.8968   24.1589 C   0  0  0  0  0  0  0  0  0  0  0  0
    5.9260   -8.2736   16.5517 C   0  0  0  0  0  0  0  0  0  0  0  0
    3.8816   -9.1166   17.2493 C   0  0  0  0  0  0  0  0  0  0  0  0
   10.1297   -1.6575   23.2324 C   0  0  0  0  0  0  0  0  0  0  0  0
    9.4684   -1.6929   26.7263 F   0  0  0  0  0  0  0  0  0  0  0  0
    7.7963   -7.7906   17.9837 C   0  0  0  0  0  0  0  0  0  0  0  0
   10.5884   -3.0725   16.7902 O   0  0  0  0  0  0  0  0  0  0  0  0
   10.4323   -5.3494   20.3516 C   0  0  0  0  0  0  0  0  0  0  0  0
    7.1156   -7.5454   16.8218 C   0  0  0  0  0  0  0  0  0  0  0  0
   10.3885   -4.4388   19.2773 C   0  0  0  0  0  0  0  0  0  0  0  0
    4.5160   -9.3822   15.0841 C   0  0  0  0  0  0  0  0  0  0  0  0
  1  3  4  0
  1 24  4  0
  2  6  4  0
  2 15  4  0
  3  5  4  0
  3  6  4  0
  4 21  4  0
  4 29  4  0
  5 15  4  0
  5 28  1  0
  6 16  4  0
  7 18  4  0
  7 26  4  0
  8 18  1  0
  8 19  4  0
  8 22  4  0
  9 12  4  0
  9 19  4  0
 10 12  4  0
 10 22  4  0
 11 20  4  0
 11 21  4  0
 12 23  1  0
 13 20  4  0
 13 29  4  0
 14 17  4  0
 14 28  4  0
 15 25  2  0
 16 27  4  0
 17 18  4  0
 20 27  1  0
 24 27  4  0
 26 28  4  0
M  END
$$$$

 Created by Python create_sdf_string function

 29 33  0  0  0  0  0  0  0  0999 V2000
    8.8270   -7.0288   18.4251 C   0  0  0  0  0  0  0  0  0  0  0  0
    9.1576   -4.6236   15.8860 O   0  0  0  0  0  0  0  0  0  0  0  0
    9.1509   -5.9108   17.7177 C   0  0  0  0  0  0  0  0  0  0  0  0
    3.6373   -9.5349   16.0582 N   0  0  0  0  0  0  0  0  0  0  0  0
    9.9275   -4.8001   18.0438 N   0  0  0  0  0  0  0  0  0  0  0  0
    8.5908   -5.7425   16.4412 C   0  0  0  0  0  0  0  0  0  0  0  0
   10.5993   -4.8981   21.6068 C   0  0  0  0  0  0  0  0  0  0  0  0
   10.4258   -3.0106   23.0998 C   0  0  0  0  0  0  0  0  0  0  0  0
   10.2148   -3.4364   25.4200 C   0  0  0  0  0  0  0  0  0  0  0  0
    9.7853   -1.1840   24.4927 C   0  0  0  0  0  0  0  0  0  0  0  0
    5.0276   -8.5227   17.5352 C   0  0  0  0  0  0  0  0  0  0  0  0
    9.8187   -2.0895   25.5800 C   0  0  0  0  0  0  0  0  0  0  0  0
    5.6473   -8.7216   15.3158 C   0  0  0  0  0  0  0  0  0  0  0  0
   10.7581   -3.1233   19.4720 N   0  0  0  0  0  0  0  0  0  0  0  0
    9.9571   -4.0573   16.8866 C   0  0  0  0  0  0  0  0  0  0  0  0
    7.6213   -6.5618   16.0087 C   0  0  0  0  0  0  0  0  0  0  0  0
   10.8583   -2.6527   20.7222 C   0  0  0  0  0  0  0  0  0  0  0  0
   10.6412   -3.5089   21.7936 C   0  0  0  0  0  0  0  0  0  0  0  0
   10.4972   -3.8968   24.1589 C   0  0  0  0  0  0  0  0  0  0  0  0
    5.9260   -8.2736   16.5517 C   0  0  0  0  0  0  0  0  0  0  0  0
    3.8816   -9.1166   17.2493 C   0  0  0  0  0  0  0  0  0  0  0  0
   10.1297   -1.6575   23.2324 C   0  0  0  0  0  0  0  0  0  0  0  0
    9.4684   -1.6929   26.7263 F   0  0  0  0  0  0  0  0  0  0  0  0
    7.7963   -7.7906   17.9837 C   0  0  0  0  0  0  0  0  0  0  0  0
   10.5884   -3.0725   16.7902 O   0  0  0  0  0  0  0  0  0  0  0  0
   10.4323   -5.3494   20.3516 C   0  0  0  0  0  0  0  0  0  0  0  0
    7.1156   -7.5454   16.8218 C   0  0  0  0  0  0  0  0  0  0  0  0
   10.3885   -4.4388   19.2773 C   0  0  0  0  0  0  0  0  0  0  0  0
    4.5160   -9.3822   15.0841 C   0  0  0  0  0  0  0  0  0  0  0  0
  1  3  4  0
  1 24  4  0
  2  6  4  0
  2 15  4  0
  3  5  4  0
  3  6  4  0
  4 21  4  0
  4 29  4  0
  5 15  4  0
  5 28  1  0
  6 16  4  0
  7 18  4  0
  7 26  4  0
  8 18  1  0
  8 19  4  0
  8 22  4  0
  9 12  4  0
  9 19  4  0
 10 12  4  0
 10 22  4  0
 11 20  4  0
 11 21  4  0
 12 23  1  0
 13 20  4  0
 13 29  4  0
 14 17  4  0
 14 28  4  0
 15 25  2  0
 16 27  4  0
 17 18  4  0
 20 27  1  0
 24 27  4  0
 26 28  4  0
M  END
$$$$

 Created by Python create_sdf_string function

 29 33  0  0  0  0  0  0  0  0999 V2000
    8.8270   -7.0288   18.4251 C   0  0  0  0  0  0  0  0  0  0  0  0
    9.1576   -4.6236   15.8860 O   0  0  0  0  0  0  0  0  0  0  0  0
    9.1509   -5.9108   17.7177 C   0  0  0  0  0  0  0  0  0  0  0  0
    3.6373   -9.5349   16.0582 N   0  0  0  0  0  0  0  0  0  0  0  0
    9.9275   -4.8001   18.0438 N   0  0  0  0  0  0  0  0  0  0  0  0
    8.5908   -5.7425   16.4412 C   0  0  0  0  0  0  0  0  0  0  0  0
   10.5993   -4.8981   21.6068 C   0  0  0  0  0  0  0  0  0  0  0  0
   10.4258   -3.0106   23.0998 C   0  0  0  0  0  0  0  0  0  0  0  0
   10.2148   -3.4364   25.4200 C   0  0  0  0  0  0  0  0  0  0  0  0
    9.7853   -1.1840   24.4927 C   0  0  0  0  0  0  0  0  0  0  0  0
    5.0276   -8.5227   17.5352 C   0  0  0  0  0  0  0  0  0  0  0  0
    9.8187   -2.0895   25.5800 C   0  0  0  0  0  0  0  0  0  0  0  0
    5.6473   -8.7216   15.3158 C   0  0  0  0  0  0  0  0  0  0  0  0
   10.7581   -3.1233   19.4720 N   0  0  0  0  0  0  0  0  0  0  0  0
    9.9571   -4.0573   16.8866 C   0  0  0  0  0  0  0  0  0  0  0  0
    7.6213   -6.5618   16.0087 C   0  0  0  0  0  0  0  0  0  0  0  0
   10.8583   -2.6527   20.7222 C   0  0  0  0  0  0  0  0  0  0  0  0
   10.6412   -3.5089   21.7936 C   0  0  0  0  0  0  0  0  0  0  0  0
   10.4972   -3.8968   24.1589 C   0  0  0  0  0  0  0  0  0  0  0  0
    5.9260   -8.2736   16.5517 C   0  0  0  0  0  0  0  0  0  0  0  0
    3.8816   -9.1166   17.2493 C   0  0  0  0  0  0  0  0  0  0  0  0
   10.1297   -1.6575   23.2324 C   0  0  0  0  0  0  0  0  0  0  0  0
    9.4684   -1.6929   26.7263 F   0  0  0  0  0  0  0  0  0  0  0  0
    7.7963   -7.7906   17.9837 C   0  0  0  0  0  0  0  0  0  0  0  0
   10.5884   -3.0725   16.7902 O   0  0  0  0  0  0  0  0  0  0  0  0
   10.4323   -5.3494   20.3516 C   0  0  0  0  0  0  0  0  0  0  0  0
    7.1156   -7.5454   16.8218 C   0  0  0  0  0  0  0  0  0  0  0  0
   10.3885   -4.4388   19.2773 C   0  0  0  0  0  0  0  0  0  0  0  0
    4.5160   -9.3822   15.0841 C   0  0  0  0  0  0  0  0  0  0  0  0
  1  3  4  0
  1 24  4  0
  2  6  4  0
  2 15  4  0
  3  5  4  0
  3  6  4  0
  4 21  4  0
  4 29  4  0
  5 15  4  0
  5 28  1  0
  6 16  4  0
  7 18  4  0
  7 26  4  0
  8 18  1  0
  8 19  4  0
  8 22  4  0
  9 12  4  0
  9 19  4  0
 10 12  4  0
 10 22  4  0
 11 20  4  0
 11 21  4  0
 12 23  1  0
 13 20  4  0
 13 29  4  0
 14 17  4  0
 14 28  4  0
 15 25  2  0
 16 27  4  0
 17 18  4  0
 20 27  1  0
 24 27  4  0
 26 28  4  0
M  END
$$$$

 Created by Python create_sdf_string function

 29 33  0  0  0  0  0  0  0  0999 V2000
    8.8270   -7.0288   18.4251 C   0  0  0  0  0  0  0  0  0  0  0  0
    9.1576   -4.6236   15.8860 O   0  0  0  0  0  0  0  0  0  0  0  0
    9.1509   -5.9108   17.7177 C   0  0  0  0  0  0  0  0  0  0  0  0
    3.6373   -9.5349   16.0582 N   0  0  0  0  0  0  0  0  0  0  0  0
    9.9275   -4.8001   18.0438 N   0  0  0  0  0  0  0  0  0  0  0  0
    8.5908   -5.7425   16.4412 C   0  0  0  0  0  0  0  0  0  0  0  0
   10.5993   -4.8981   21.6068 C   0  0  0  0  0  0  0  0  0  0  0  0
   10.4258   -3.0106   23.0998 C   0  0  0  0  0  0  0  0  0  0  0  0
   10.2148   -3.4364   25.4200 C   0  0  0  0  0  0  0  0  0  0  0  0
    9.7853   -1.1840   24.4927 C   0  0  0  0  0  0  0  0  0  0  0  0
    5.0276   -8.5227   17.5352 C   0  0  0  0  0  0  0  0  0  0  0  0
    9.8187   -2.0895   25.5800 C   0  0  0  0  0  0  0  0  0  0  0  0
    5.6473   -8.7216   15.3158 C   0  0  0  0  0  0  0  0  0  0  0  0
   10.7581   -3.1233   19.4720 N   0  0  0  0  0  0  0  0  0  0  0  0
    9.9571   -4.0573   16.8866 C   0  0  0  0  0  0  0  0  0  0  0  0
    7.6213   -6.5618   16.0087 C   0  0  0  0  0  0  0  0  0  0  0  0
   10.8583   -2.6527   20.7222 C   0  0  0  0  0  0  0  0  0  0  0  0
   10.6412   -3.5089   21.7936 C   0  0  0  0  0  0  0  0  0  0  0  0
   10.4972   -3.8968   24.1589 C   0  0  0  0  0  0  0  0  0  0  0  0
    5.9260   -8.2736   16.5517 C   0  0  0  0  0  0  0  0  0  0  0  0
    3.8816   -9.1166   17.2493 C   0  0  0  0  0  0  0  0  0  0  0  0
   10.1297   -1.6575   23.2324 C   0  0  0  0  0  0  0  0  0  0  0  0
    9.4684   -1.6929   26.7263 F   0  0  0  0  0  0  0  0  0  0  0  0
    7.7963   -7.7906   17.9837 C   0  0  0  0  0  0  0  0  0  0  0  0
   10.5884   -3.0725   16.7902 O   0  0  0  0  0  0  0  0  0  0  0  0
   10.4323   -5.3494   20.3516 C   0  0  0  0  0  0  0  0  0  0  0  0
    7.1156   -7.5454   16.8218 C   0  0  0  0  0  0  0  0  0  0  0  0
   10.3885   -4.4388   19.2773 C   0  0  0  0  0  0  0  0  0  0  0  0
    4.5160   -9.3822   15.0841 C   0  0  0  0  0  0  0  0  0  0  0  0
  1  3  4  0
  1 24  4  0
  2  6  4  0
  2 15  4  0
  3  5  4  0
  3  6  4  0
  4 21  4  0
  4 29  4  0
  5 15  4  0
  5 28  1  0
  6 16  4  0
  7 18  4  0
  7 26  4  0
  8 18  1  0
  8 19  4  0
  8 22  4  0
  9 12  4  0
  9 19  4  0
 10 12  4  0
 10 22  4  0
 11 20  4  0
 11 21  4  0
 12 23  1  0
 13 20  4  0
 13 29  4  0
 14 17  4  0
 14 28  4  0
 15 25  2  0
 16 27  4  0
 17 18  4  0
 20 27  1  0
 24 27  4  0
 26 28  4  0
M  END
$$$$

 Created by Python create_sdf_string function

 29 33  0  0  0  0  0  0  0  0999 V2000
    8.8270   -7.0288   18.4251 C   0  0  0  0  0  0  0  0  0  0  0  0
    9.1576   -4.6236   15.8860 O   0  0  0  0  0  0  0  0  0  0  0  0
    9.1509   -5.9108   17.7177 C   0  0  0  0  0  0  0  0  0  0  0  0
    3.6373   -9.5349   16.0582 N   0  0  0  0  0  0  0  0  0  0  0  0
    9.9275   -4.8001   18.0438 N   0  0  0  0  0  0  0  0  0  0  0  0
    8.5908   -5.7425   16.4412 C   0  0  0  0  0  0  0  0  0  0  0  0
   10.5993   -4.8981   21.6068 C   0  0  0  0  0  0  0  0  0  0  0  0
   10.4258   -3.0106   23.0998 C   0  0  0  0  0  0  0  0  0  0  0  0
   10.2148   -3.4364   25.4200 C   0  0  0  0  0  0  0  0  0  0  0  0
    9.7853   -1.1840   24.4927 C   0  0  0  0  0  0  0  0  0  0  0  0
    5.0276   -8.5227   17.5352 C   0  0  0  0  0  0  0  0  0  0  0  0
    9.8187   -2.0895   25.5800 C   0  0  0  0  0  0  0  0  0  0  0  0
    5.6473   -8.7216   15.3158 C   0  0  0  0  0  0  0  0  0  0  0  0
   10.7581   -3.1233   19.4720 N   0  0  0  0  0  0  0  0  0  0  0  0
    9.9571   -4.0573   16.8866 C   0  0  0  0  0  0  0  0  0  0  0  0
    7.6213   -6.5618   16.0087 C   0  0  0  0  0  0  0  0  0  0  0  0
   10.8583   -2.6527   20.7222 C   0  0  0  0  0  0  0  0  0  0  0  0
   10.6412   -3.5089   21.7936 C   0  0  0  0  0  0  0  0  0  0  0  0
   10.4972   -3.8968   24.1589 C   0  0  0  0  0  0  0  0  0  0  0  0
    5.9260   -8.2736   16.5517 C   0  0  0  0  0  0  0  0  0  0  0  0
    3.8816   -9.1166   17.2493 C   0  0  0  0  0  0  0  0  0  0  0  0
   10.1297   -1.6575   23.2324 C   0  0  0  0  0  0  0  0  0  0  0  0
    9.4684   -1.6929   26.7263 F   0  0  0  0  0  0  0  0  0  0  0  0
    7.7963   -7.7906   17.9837 C   0  0  0  0  0  0  0  0  0  0  0  0
   10.5884   -3.0725   16.7902 O   0  0  0  0  0  0  0  0  0  0  0  0
   10.4323   -5.3494   20.3516 C   0  0  0  0  0  0  0  0  0  0  0  0
    7.1156   -7.5454   16.8218 C   0  0  0  0  0  0  0  0  0  0  0  0
   10.3885   -4.4388   19.2773 C   0  0  0  0  0  0  0  0  0  0  0  0
    4.5160   -9.3822   15.0841 C   0  0  0  0  0  0  0  0  0  0  0  0
  1  3  4  0
  1 24  4  0
  2  6  4  0
  2 15  4  0
  3  5  4  0
  3  6  4  0
  4 21  4  0
  4 29  4  0
  5 15  4  0
  5 28  1  0
  6 16  4  0
  7 18  4  0
  7 26  4  0
  8 18  1  0
  8 19  4  0
  8 22  4  0
  9 12  4  0
  9 19  4  0
 10 12  4  0
 10 22  4  0
 11 20  4  0
 11 21  4  0
 12 23  1  0
 13 20  4  0
 13 29  4  0
 14 17  4  0
 14 28  4  0
 15 25  2  0
 16 27  4  0
 17 18  4  0
 20 27  1  0
 24 27  4  0
 26 28  4  0
M  END
$$$$

 Created by Python create_sdf_string function

 29 33  0  0  0  0  0  0  0  0999 V2000
    8.8270   -7.0288   18.4251 C   0  0  0  0  0  0  0  0  0  0  0  0
    9.1576   -4.6236   15.8860 O   0  0  0  0  0  0  0  0  0  0  0  0
    9.1509   -5.9108   17.7177 C   0  0  0  0  0  0  0  0  0  0  0  0
    3.6373   -9.5349   16.0582 N   0  0  0  0  0  0  0  0  0  0  0  0
    9.9275   -4.8001   18.0438 N   0  0  0  0  0  0  0  0  0  0  0  0
    8.5908   -5.7425   16.4412 C   0  0  0  0  0  0  0  0  0  0  0  0
   10.5993   -4.8981   21.6068 C   0  0  0  0  0  0  0  0  0  0  0  0
   10.4258   -3.0106   23.0998 C   0  0  0  0  0  0  0  0  0  0  0  0
   10.2148   -3.4364   25.4200 C   0  0  0  0  0  0  0  0  0  0  0  0
    9.7853   -1.1840   24.4927 C   0  0  0  0  0  0  0  0  0  0  0  0
    5.0276   -8.5227   17.5352 C   0  0  0  0  0  0  0  0  0  0  0  0
    9.8187   -2.0895   25.5800 C   0  0  0  0  0  0  0  0  0  0  0  0
    5.6473   -8.7216   15.3158 C   0  0  0  0  0  0  0  0  0  0  0  0
   10.7581   -3.1233   19.4720 N   0  0  0  0  0  0  0  0  0  0  0  0
    9.9571   -4.0573   16.8866 C   0  0  0  0  0  0  0  0  0  0  0  0
    7.6213   -6.5618   16.0087 C   0  0  0  0  0  0  0  0  0  0  0  0
   10.8583   -2.6527   20.7222 C   0  0  0  0  0  0  0  0  0  0  0  0
   10.6412   -3.5089   21.7936 C   0  0  0  0  0  0  0  0  0  0  0  0
   10.4972   -3.8968   24.1589 C   0  0  0  0  0  0  0  0  0  0  0  0
    5.9260   -8.2736   16.5517 C   0  0  0  0  0  0  0  0  0  0  0  0
    3.8816   -9.1166   17.2493 C   0  0  0  0  0  0  0  0  0  0  0  0
   10.1297   -1.6575   23.2324 C   0  0  0  0  0  0  0  0  0  0  0  0
    9.4684   -1.6929   26.7263 F   0  0  0  0  0  0  0  0  0  0  0  0
    7.7963   -7.7906   17.9837 C   0  0  0  0  0  0  0  0  0  0  0  0
   10.5884   -3.0725   16.7902 O   0  0  0  0  0  0  0  0  0  0  0  0
   10.4323   -5.3494   20.3516 C   0  0  0  0  0  0  0  0  0  0  0  0
    7.1156   -7.5454   16.8218 C   0  0  0  0  0  0  0  0  0  0  0  0
   10.3885   -4.4388   19.2773 C   0  0  0  0  0  0  0  0  0  0  0  0
    4.5160   -9.3822   15.0841 C   0  0  0  0  0  0  0  0  0  0  0  0
  1  3  4  0
  1 24  4  0
  2  6  4  0
  2 15  4  0
  3  5  4  0
  3  6  4  0
  4 21  4  0
  4 29  4  0
  5 15  4  0
  5 28  1  0
  6 16  4  0
  7 18  4  0
  7 26  4  0
  8 18  1  0
  8 19  4  0
  8 22  4  0
  9 12  4  0
  9 19  4  0
 10 12  4  0
 10 22  4  0
 11 20  4  0
 11 21  4  0
 12 23  1  0
 13 20  4  0
 13 29  4  0
 14 17  4  0
 14 28  4  0
 15 25  2  0
 16 27  4  0
 17 18  4  0
 20 27  1  0
 24 27  4  0
 26 28  4  0
M  END
$$$$

 Created by Python create_sdf_string function

 29 33  0  0  0  0  0  0  0  0999 V2000
    8.8270   -7.0288   18.4251 C   0  0  0  0  0  0  0  0  0  0  0  0
    9.1576   -4.6236   15.8860 O   0  0  0  0  0  0  0  0  0  0  0  0
    9.1509   -5.9108   17.7177 C   0  0  0  0  0  0  0  0  0  0  0  0
    3.6373   -9.5349   16.0582 N   0  0  0  0  0  0  0  0  0  0  0  0
    9.9275   -4.8001   18.0438 N   0  0  0  0  0  0  0  0  0  0  0  0
    8.5908   -5.7425   16.4412 C   0  0  0  0  0  0  0  0  0  0  0  0
   10.5993   -4.8981   21.6068 C   0  0  0  0  0  0  0  0  0  0  0  0
   10.4258   -3.0106   23.0998 C   0  0  0  0  0  0  0  0  0  0  0  0
   10.2148   -3.4364   25.4200 C   0  0  0  0  0  0  0  0  0  0  0  0
    9.7853   -1.1840   24.4927 C   0  0  0  0  0  0  0  0  0  0  0  0
    5.0276   -8.5227   17.5352 C   0  0  0  0  0  0  0  0  0  0  0  0
    9.8187   -2.0895   25.5800 C   0  0  0  0  0  0  0  0  0  0  0  0
    5.6473   -8.7216   15.3158 C   0  0  0  0  0  0  0  0  0  0  0  0
   10.7581   -3.1233   19.4720 N   0  0  0  0  0  0  0  0  0  0  0  0
    9.9571   -4.0573   16.8866 C   0  0  0  0  0  0  0  0  0  0  0  0
    7.6213   -6.5618   16.0087 C   0  0  0  0  0  0  0  0  0  0  0  0
   10.8583   -2.6527   20.7222 C   0  0  0  0  0  0  0  0  0  0  0  0
   10.6412   -3.5089   21.7936 C   0  0  0  0  0  0  0  0  0  0  0  0
   10.4972   -3.8968   24.1589 C   0  0  0  0  0  0  0  0  0  0  0  0
    5.9260   -8.2736   16.5517 C   0  0  0  0  0  0  0  0  0  0  0  0
    3.8816   -9.1166   17.2493 C   0  0  0  0  0  0  0  0  0  0  0  0
   10.1297   -1.6575   23.2324 C   0  0  0  0  0  0  0  0  0  0  0  0
    9.4684   -1.6929   26.7263 F   0  0  0  0  0  0  0  0  0  0  0  0
    7.7963   -7.7906   17.9837 C   0  0  0  0  0  0  0  0  0  0  0  0
   10.5884   -3.0725   16.7902 O   0  0  0  0  0  0  0  0  0  0  0  0
   10.4323   -5.3494   20.3516 C   0  0  0  0  0  0  0  0  0  0  0  0
    7.1156   -7.5454   16.8218 C   0  0  0  0  0  0  0  0  0  0  0  0
   10.3885   -4.4388   19.2773 C   0  0  0  0  0  0  0  0  0  0  0  0
    4.5160   -9.3822   15.0841 C   0  0  0  0  0  0  0  0  0  0  0  0
  1  3  4  0
  1 24  4  0
  2  6  4  0
  2 15  4  0
  3  5  4  0
  3  6  4  0
  4 21  4  0
  4 29  4  0
  5 15  4  0
  5 28  1  0
  6 16  4  0
  7 18  4  0
  7 26  4  0
  8 18  1  0
  8 19  4  0
  8 22  4  0
  9 12  4  0
  9 19  4  0
 10 12  4  0
 10 22  4  0
 11 20  4  0
 11 21  4  0
 12 23  1  0
 13 20  4  0
 13 29  4  0
 14 17  4  0
 14 28  4  0
 15 25  2  0
 16 27  4  0
 17 18  4  0
 20 27  1  0
 24 27  4  0
 26 28  4  0
M  END
$$$$

 Created by Python create_sdf_string function

 29 33  0  0  0  0  0  0  0  0999 V2000
    8.8270   -7.0288   18.4251 C   0  0  0  0  0  0  0  0  0  0  0  0
    9.1576   -4.6236   15.8860 O   0  0  0  0  0  0  0  0  0  0  0  0
    9.1509   -5.9108   17.7177 C   0  0  0  0  0  0  0  0  0  0  0  0
    3.6373   -9.5349   16.0582 N   0  0  0  0  0  0  0  0  0  0  0  0
    9.9275   -4.8001   18.0438 N   0  0  0  0  0  0  0  0  0  0  0  0
    8.5908   -5.7425   16.4412 C   0  0  0  0  0  0  0  0  0  0  0  0
   10.5993   -4.8981   21.6068 C   0  0  0  0  0  0  0  0  0  0  0  0
   10.4258   -3.0106   23.0998 C   0  0  0  0  0  0  0  0  0  0  0  0
   10.2148   -3.4364   25.4200 C   0  0  0  0  0  0  0  0  0  0  0  0
    9.7853   -1.1840   24.4927 C   0  0  0  0  0  0  0  0  0  0  0  0
    5.0276   -8.5227   17.5352 C   0  0  0  0  0  0  0  0  0  0  0  0
    9.8187   -2.0895   25.5800 C   0  0  0  0  0  0  0  0  0  0  0  0
    5.6473   -8.7216   15.3158 C   0  0  0  0  0  0  0  0  0  0  0  0
   10.7581   -3.1233   19.4720 N   0  0  0  0  0  0  0  0  0  0  0  0
    9.9571   -4.0573   16.8866 C   0  0  0  0  0  0  0  0  0  0  0  0
    7.6213   -6.5618   16.0087 C   0  0  0  0  0  0  0  0  0  0  0  0
   10.8583   -2.6527   20.7222 C   0  0  0  0  0  0  0  0  0  0  0  0
   10.6412   -3.5089   21.7936 C   0  0  0  0  0  0  0  0  0  0  0  0
   10.4972   -3.8968   24.1589 C   0  0  0  0  0  0  0  0  0  0  0  0
    5.9260   -8.2736   16.5517 C   0  0  0  0  0  0  0  0  0  0  0  0
    3.8816   -9.1166   17.2493 C   0  0  0  0  0  0  0  0  0  0  0  0
   10.1297   -1.6575   23.2324 C   0  0  0  0  0  0  0  0  0  0  0  0
    9.4684   -1.6929   26.7263 F   0  0  0  0  0  0  0  0  0  0  0  0
    7.7963   -7.7906   17.9837 C   0  0  0  0  0  0  0  0  0  0  0  0
   10.5884   -3.0725   16.7902 O   0  0  0  0  0  0  0  0  0  0  0  0
   10.4323   -5.3494   20.3516 C   0  0  0  0  0  0  0  0  0  0  0  0
    7.1156   -7.5454   16.8218 C   0  0  0  0  0  0  0  0  0  0  0  0
   10.3885   -4.4388   19.2773 C   0  0  0  0  0  0  0  0  0  0  0  0
    4.5160   -9.3822   15.0841 C   0  0  0  0  0  0  0  0  0  0  0  0
  1  3  4  0
  1 24  4  0
  2  6  4  0
  2 15  4  0
  3  5  4  0
  3  6  4  0
  4 21  4  0
  4 29  4  0
  5 15  4  0
  5 28  1  0
  6 16  4  0
  7 18  4  0
  7 26  4  0
  8 18  1  0
  8 19  4  0
  8 22  4  0
  9 12  4  0
  9 19  4  0
 10 12  4  0
 10 22  4  0
 11 20  4  0
 11 21  4  0
 12 23  1  0
 13 20  4  0
 13 29  4  0
 14 17  4  0
 14 28  4  0
 15 25  2  0
 16 27  4  0
 17 18  4  0
 20 27  1  0
 24 27  4  0
 26 28  4  0
M  END
$$$$

 Created by Python create_sdf_string function

 29 33  0  0  0  0  0  0  0  0999 V2000
    8.8270   -7.0288   18.4251 C   0  0  0  0  0  0  0  0  0  0  0  0
    9.1576   -4.6236   15.8860 O   0  0  0  0  0  0  0  0  0  0  0  0
    9.1509   -5.9108   17.7177 C   0  0  0  0  0  0  0  0  0  0  0  0
    3.6373   -9.5349   16.0582 N   0  0  0  0  0  0  0  0  0  0  0  0
    9.9275   -4.8001   18.0438 N   0  0  0  0  0  0  0  0  0  0  0  0
    8.5908   -5.7425   16.4412 C   0  0  0  0  0  0  0  0  0  0  0  0
   10.5993   -4.8981   21.6068 C   0  0  0  0  0  0  0  0  0  0  0  0
   10.4258   -3.0106   23.0998 C   0  0  0  0  0  0  0  0  0  0  0  0
   10.2148   -3.4364   25.4200 C   0  0  0  0  0  0  0  0  0  0  0  0
    9.7853   -1.1840   24.4927 C   0  0  0  0  0  0  0  0  0  0  0  0
    5.0276   -8.5227   17.5352 C   0  0  0  0  0  0  0  0  0  0  0  0
    9.8187   -2.0895   25.5800 C   0  0  0  0  0  0  0  0  0  0  0  0
    5.6473   -8.7216   15.3158 C   0  0  0  0  0  0  0  0  0  0  0  0
   10.7581   -3.1233   19.4720 N   0  0  0  0  0  0  0  0  0  0  0  0
    9.9571   -4.0573   16.8866 C   0  0  0  0  0  0  0  0  0  0  0  0
    7.6213   -6.5618   16.0087 C   0  0  0  0  0  0  0  0  0  0  0  0
   10.8583   -2.6527   20.7222 C   0  0  0  0  0  0  0  0  0  0  0  0
   10.6412   -3.5089   21.7936 C   0  0  0  0  0  0  0  0  0  0  0  0
   10.4972   -3.8968   24.1589 C   0  0  0  0  0  0  0  0  0  0  0  0
    5.9260   -8.2736   16.5517 C   0  0  0  0  0  0  0  0  0  0  0  0
    3.8816   -9.1166   17.2493 C   0  0  0  0  0  0  0  0  0  0  0  0
   10.1297   -1.6575   23.2324 C   0  0  0  0  0  0  0  0  0  0  0  0
    9.4684   -1.6929   26.7263 F   0  0  0  0  0  0  0  0  0  0  0  0
    7.7963   -7.7906   17.9837 C   0  0  0  0  0  0  0  0  0  0  0  0
   10.5884   -3.0725   16.7902 O   0  0  0  0  0  0  0  0  0  0  0  0
   10.4323   -5.3494   20.3516 C   0  0  0  0  0  0  0  0  0  0  0  0
    7.1156   -7.5454   16.8218 C   0  0  0  0  0  0  0  0  0  0  0  0
   10.3885   -4.4388   19.2773 C   0  0  0  0  0  0  0  0  0  0  0  0
    4.5160   -9.3822   15.0841 C   0  0  0  0  0  0  0  0  0  0  0  0
  1  3  4  0
  1 24  4  0
  2  6  4  0
  2 15  4  0
  3  5  4  0
  3  6  4  0
  4 21  4  0
  4 29  4  0
  5 15  4  0
  5 28  1  0
  6 16  4  0
  7 18  4  0
  7 26  4  0
  8 18  1  0
  8 19  4  0
  8 22  4  0
  9 12  4  0
  9 19  4  0
 10 12  4  0
 10 22  4  0
 11 20  4  0
 11 21  4  0
 12 23  1  0
 13 20  4  0
 13 29  4  0
 14 17  4  0
 14 28  4  0
 15 25  2  0
 16 27  4  0
 17 18  4  0
 20 27  1  0
 24 27  4  0
 26 28  4  0
M  END
$$$$

 Created by Python create_sdf_string function

 29 33  0  0  0  0  0  0  0  0999 V2000
    8.8270   -7.0288   18.4251 C   0  0  0  0  0  0  0  0  0  0  0  0
    9.1576   -4.6236   15.8860 O   0  0  0  0  0  0  0  0  0  0  0  0
    9.1509   -5.9108   17.7177 C   0  0  0  0  0  0  0  0  0  0  0  0
    3.6373   -9.5349   16.0582 N   0  0  0  0  0  0  0  0  0  0  0  0
    9.9275   -4.8001   18.0438 N   0  0  0  0  0  0  0  0  0  0  0  0
    8.5908   -5.7425   16.4412 C   0  0  0  0  0  0  0  0  0  0  0  0
   10.5993   -4.8981   21.6068 C   0  0  0  0  0  0  0  0  0  0  0  0
   10.4258   -3.0106   23.0998 C   0  0  0  0  0  0  0  0  0  0  0  0
   10.2148   -3.4364   25.4200 C   0  0  0  0  0  0  0  0  0  0  0  0
    9.7853   -1.1840   24.4927 C   0  0  0  0  0  0  0  0  0  0  0  0
    5.0276   -8.5227   17.5352 C   0  0  0  0  0  0  0  0  0  0  0  0
    9.8187   -2.0895   25.5800 C   0  0  0  0  0  0  0  0  0  0  0  0
    5.6473   -8.7216   15.3158 C   0  0  0  0  0  0  0  0  0  0  0  0
   10.7581   -3.1233   19.4720 N   0  0  0  0  0  0  0  0  0  0  0  0
    9.9571   -4.0573   16.8866 C   0  0  0  0  0  0  0  0  0  0  0  0
    7.6213   -6.5618   16.0087 C   0  0  0  0  0  0  0  0  0  0  0  0
   10.8583   -2.6527   20.7222 C   0  0  0  0  0  0  0  0  0  0  0  0
   10.6412   -3.5089   21.7936 C   0  0  0  0  0  0  0  0  0  0  0  0
   10.4972   -3.8968   24.1589 C   0  0  0  0  0  0  0  0  0  0  0  0
    5.9260   -8.2736   16.5517 C   0  0  0  0  0  0  0  0  0  0  0  0
    3.8816   -9.1166   17.2493 C   0  0  0  0  0  0  0  0  0  0  0  0
   10.1297   -1.6575   23.2324 C   0  0  0  0  0  0  0  0  0  0  0  0
    9.4684   -1.6929   26.7263 F   0  0  0  0  0  0  0  0  0  0  0  0
    7.7963   -7.7906   17.9837 C   0  0  0  0  0  0  0  0  0  0  0  0
   10.5884   -3.0725   16.7902 O   0  0  0  0  0  0  0  0  0  0  0  0
   10.4323   -5.3494   20.3516 C   0  0  0  0  0  0  0  0  0  0  0  0
    7.1156   -7.5454   16.8218 C   0  0  0  0  0  0  0  0  0  0  0  0
   10.3885   -4.4388   19.2773 C   0  0  0  0  0  0  0  0  0  0  0  0
    4.5160   -9.3822   15.0841 C   0  0  0  0  0  0  0  0  0  0  0  0
  1  3  4  0
  1 24  4  0
  2  6  4  0
  2 15  4  0
  3  5  4  0
  3  6  4  0
  4 21  4  0
  4 29  4  0
  5 15  4  0
  5 28  1  0
  6 16  4  0
  7 18  4  0
  7 26  4  0
  8 18  1  0
  8 19  4  0
  8 22  4  0
  9 12  4  0
  9 19  4  0
 10 12  4  0
 10 22  4  0
 11 20  4  0
 11 21  4  0
 12 23  1  0
 13 20  4  0
 13 29  4  0
 14 17  4  0
 14 28  4  0
 15 25  2  0
 16 27  4  0
 17 18  4  0
 20 27  1  0
 24 27  4  0
 26 28  4  0
M  END
$$$$

 Created by Python create_sdf_string function

 29 33  0  0  0  0  0  0  0  0999 V2000
    8.8270   -7.0288   18.4251 C   0  0  0  0  0  0  0  0  0  0  0  0
    9.1576   -4.6236   15.8860 O   0  0  0  0  0  0  0  0  0  0  0  0
    9.1509   -5.9108   17.7177 C   0  0  0  0  0  0  0  0  0  0  0  0
    3.6373   -9.5349   16.0582 N   0  0  0  0  0  0  0  0  0  0  0  0
    9.9275   -4.8001   18.0438 N   0  0  0  0  0  0  0  0  0  0  0  0
    8.5908   -5.7425   16.4412 C   0  0  0  0  0  0  0  0  0  0  0  0
   10.5993   -4.8981   21.6068 C   0  0  0  0  0  0  0  0  0  0  0  0
   10.4258   -3.0106   23.0998 C   0  0  0  0  0  0  0  0  0  0  0  0
   10.2148   -3.4364   25.4200 C   0  0  0  0  0  0  0  0  0  0  0  0
    9.7853   -1.1840   24.4927 C   0  0  0  0  0  0  0  0  0  0  0  0
    5.0276   -8.5227   17.5352 C   0  0  0  0  0  0  0  0  0  0  0  0
    9.8187   -2.0895   25.5800 C   0  0  0  0  0  0  0  0  0  0  0  0
    5.6473   -8.7216   15.3158 C   0  0  0  0  0  0  0  0  0  0  0  0
   10.7581   -3.1233   19.4720 N   0  0  0  0  0  0  0  0  0  0  0  0
    9.9571   -4.0573   16.8866 C   0  0  0  0  0  0  0  0  0  0  0  0
    7.6213   -6.5618   16.0087 C   0  0  0  0  0  0  0  0  0  0  0  0
   10.8583   -2.6527   20.7222 C   0  0  0  0  0  0  0  0  0  0  0  0
   10.6412   -3.5089   21.7936 C   0  0  0  0  0  0  0  0  0  0  0  0
   10.4972   -3.8968   24.1589 C   0  0  0  0  0  0  0  0  0  0  0  0
    5.9260   -8.2736   16.5517 C   0  0  0  0  0  0  0  0  0  0  0  0
    3.8816   -9.1166   17.2493 C   0  0  0  0  0  0  0  0  0  0  0  0
   10.1297   -1.6575   23.2324 C   0  0  0  0  0  0  0  0  0  0  0  0
    9.4684   -1.6929   26.7263 F   0  0  0  0  0  0  0  0  0  0  0  0
    7.7963   -7.7906   17.9837 C   0  0  0  0  0  0  0  0  0  0  0  0
   10.5884   -3.0725   16.7902 O   0  0  0  0  0  0  0  0  0  0  0  0
   10.4323   -5.3494   20.3516 C   0  0  0  0  0  0  0  0  0  0  0  0
    7.1156   -7.5454   16.8218 C   0  0  0  0  0  0  0  0  0  0  0  0
   10.3885   -4.4388   19.2773 C   0  0  0  0  0  0  0  0  0  0  0  0
    4.5160   -9.3822   15.0841 C   0  0  0  0  0  0  0  0  0  0  0  0
  1  3  4  0
  1 24  4  0
  2  6  4  0
  2 15  4  0
  3  5  4  0
  3  6  4  0
  4 21  4  0
  4 29  4  0
  5 15  4  0
  5 28  1  0
  6 16  4  0
  7 18  4  0
  7 26  4  0
  8 18  1  0
  8 19  4  0
  8 22  4  0
  9 12  4  0
  9 19  4  0
 10 12  4  0
 10 22  4  0
 11 20  4  0
 11 21  4  0
 12 23  1  0
 13 20  4  0
 13 29  4  0
 14 17  4  0
 14 28  4  0
 15 25  2  0
 16 27  4  0
 17 18  4  0
 20 27  1  0
 24 27  4  0
 26 28  4  0
M  END
$$$$

 Created by Python create_sdf_string function

 29 33  0  0  0  0  0  0  0  0999 V2000
    8.8270   -7.0288   18.4251 C   0  0  0  0  0  0  0  0  0  0  0  0
    9.1576   -4.6236   15.8860 O   0  0  0  0  0  0  0  0  0  0  0  0
    9.1509   -5.9108   17.7177 C   0  0  0  0  0  0  0  0  0  0  0  0
    3.6373   -9.5349   16.0582 N   0  0  0  0  0  0  0  0  0  0  0  0
    9.9275   -4.8001   18.0438 N   0  0  0  0  0  0  0  0  0  0  0  0
    8.5908   -5.7425   16.4412 C   0  0  0  0  0  0  0  0  0  0  0  0
   10.5993   -4.8981   21.6068 C   0  0  0  0  0  0  0  0  0  0  0  0
   10.4258   -3.0106   23.0998 C   0  0  0  0  0  0  0  0  0  0  0  0
   10.2148   -3.4364   25.4200 C   0  0  0  0  0  0  0  0  0  0  0  0
    9.7853   -1.1840   24.4927 C   0  0  0  0  0  0  0  0  0  0  0  0
    5.0276   -8.5227   17.5352 C   0  0  0  0  0  0  0  0  0  0  0  0
    9.8187   -2.0895   25.5800 C   0  0  0  0  0  0  0  0  0  0  0  0
    5.6473   -8.7216   15.3158 C   0  0  0  0  0  0  0  0  0  0  0  0
   10.7581   -3.1233   19.4720 N   0  0  0  0  0  0  0  0  0  0  0  0
    9.9571   -4.0573   16.8866 C   0  0  0  0  0  0  0  0  0  0  0  0
    7.6213   -6.5618   16.0087 C   0  0  0  0  0  0  0  0  0  0  0  0
   10.8583   -2.6527   20.7222 C   0  0  0  0  0  0  0  0  0  0  0  0
   10.6412   -3.5089   21.7936 C   0  0  0  0  0  0  0  0  0  0  0  0
   10.4972   -3.8968   24.1589 C   0  0  0  0  0  0  0  0  0  0  0  0
    5.9260   -8.2736   16.5517 C   0  0  0  0  0  0  0  0  0  0  0  0
    3.8816   -9.1166   17.2493 C   0  0  0  0  0  0  0  0  0  0  0  0
   10.1297   -1.6575   23.2324 C   0  0  0  0  0  0  0  0  0  0  0  0
    9.4684   -1.6929   26.7263 F   0  0  0  0  0  0  0  0  0  0  0  0
    7.7963   -7.7906   17.9837 C   0  0  0  0  0  0  0  0  0  0  0  0
   10.5884   -3.0725   16.7902 O   0  0  0  0  0  0  0  0  0  0  0  0
   10.4323   -5.3494   20.3516 C   0  0  0  0  0  0  0  0  0  0  0  0
    7.1156   -7.5454   16.8218 C   0  0  0  0  0  0  0  0  0  0  0  0
   10.3885   -4.4388   19.2773 C   0  0  0  0  0  0  0  0  0  0  0  0
    4.5160   -9.3822   15.0841 C   0  0  0  0  0  0  0  0  0  0  0  0
  1  3  4  0
  1 24  4  0
  2  6  4  0
  2 15  4  0
  3  5  4  0
  3  6  4  0
  4 21  4  0
  4 29  4  0
  5 15  4  0
  5 28  1  0
  6 16  4  0
  7 18  4  0
  7 26  4  0
  8 18  1  0
  8 19  4  0
  8 22  4  0
  9 12  4  0
  9 19  4  0
 10 12  4  0
 10 22  4  0
 11 20  4  0
 11 21  4  0
 12 23  1  0
 13 20  4  0
 13 29  4  0
 14 17  4  0
 14 28  4  0
 15 25  2  0
 16 27  4  0
 17 18  4  0
 20 27  1  0
 24 27  4  0
 26 28  4  0
M  END
$$$$

 Created by Python create_sdf_string function

 29 33  0  0  0  0  0  0  0  0999 V2000
    8.8270   -7.0288   18.4251 C   0  0  0  0  0  0  0  0  0  0  0  0
    9.1576   -4.6236   15.8860 O   0  0  0  0  0  0  0  0  0  0  0  0
    9.1509   -5.9108   17.7177 C   0  0  0  0  0  0  0  0  0  0  0  0
    3.6373   -9.5349   16.0582 N   0  0  0  0  0  0  0  0  0  0  0  0
    9.9275   -4.8001   18.0438 N   0  0  0  0  0  0  0  0  0  0  0  0
    8.5908   -5.7425   16.4412 C   0  0  0  0  0  0  0  0  0  0  0  0
   10.5993   -4.8981   21.6068 C   0  0  0  0  0  0  0  0  0  0  0  0
   10.4258   -3.0106   23.0998 C   0  0  0  0  0  0  0  0  0  0  0  0
   10.2148   -3.4364   25.4200 C   0  0  0  0  0  0  0  0  0  0  0  0
    9.7853   -1.1840   24.4927 C   0  0  0  0  0  0  0  0  0  0  0  0
    5.0276   -8.5227   17.5352 C   0  0  0  0  0  0  0  0  0  0  0  0
    9.8187   -2.0895   25.5800 C   0  0  0  0  0  0  0  0  0  0  0  0
    5.6473   -8.7216   15.3158 C   0  0  0  0  0  0  0  0  0  0  0  0
   10.7581   -3.1233   19.4720 N   0  0  0  0  0  0  0  0  0  0  0  0
    9.9571   -4.0573   16.8866 C   0  0  0  0  0  0  0  0  0  0  0  0
    7.6213   -6.5618   16.0087 C   0  0  0  0  0  0  0  0  0  0  0  0
   10.8583   -2.6527   20.7222 C   0  0  0  0  0  0  0  0  0  0  0  0
   10.6412   -3.5089   21.7936 C   0  0  0  0  0  0  0  0  0  0  0  0
   10.4972   -3.8968   24.1589 C   0  0  0  0  0  0  0  0  0  0  0  0
    5.9260   -8.2736   16.5517 C   0  0  0  0  0  0  0  0  0  0  0  0
    3.8816   -9.1166   17.2493 C   0  0  0  0  0  0  0  0  0  0  0  0
   10.1297   -1.6575   23.2324 C   0  0  0  0  0  0  0  0  0  0  0  0
    9.4684   -1.6929   26.7263 F   0  0  0  0  0  0  0  0  0  0  0  0
    7.7963   -7.7906   17.9837 C   0  0  0  0  0  0  0  0  0  0  0  0
   10.5884   -3.0725   16.7902 O   0  0  0  0  0  0  0  0  0  0  0  0
   10.4323   -5.3494   20.3516 C   0  0  0  0  0  0  0  0  0  0  0  0
    7.1156   -7.5454   16.8218 C   0  0  0  0  0  0  0  0  0  0  0  0
   10.3885   -4.4388   19.2773 C   0  0  0  0  0  0  0  0  0  0  0  0
    4.5160   -9.3822   15.0841 C   0  0  0  0  0  0  0  0  0  0  0  0
  1  3  4  0
  1 24  4  0
  2  6  4  0
  2 15  4  0
  3  5  4  0
  3  6  4  0
  4 21  4  0
  4 29  4  0
  5 15  4  0
  5 28  1  0
  6 16  4  0
  7 18  4  0
  7 26  4  0
  8 18  1  0
  8 19  4  0
  8 22  4  0
  9 12  4  0
  9 19  4  0
 10 12  4  0
 10 22  4  0
 11 20  4  0
 11 21  4  0
 12 23  1  0
 13 20  4  0
 13 29  4  0
 14 17  4  0
 14 28  4  0
 15 25  2  0
 16 27  4  0
 17 18  4  0
 20 27  1  0
 24 27  4  0
 26 28  4  0
M  END
$$$$

 Created by Python create_sdf_string function

 29 33  0  0  0  0  0  0  0  0999 V2000
    8.8270   -7.0288   18.4251 C   0  0  0  0  0  0  0  0  0  0  0  0
    9.1576   -4.6236   15.8860 O   0  0  0  0  0  0  0  0  0  0  0  0
    9.1509   -5.9108   17.7177 C   0  0  0  0  0  0  0  0  0  0  0  0
    3.6373   -9.5349   16.0582 N   0  0  0  0  0  0  0  0  0  0  0  0
    9.9275   -4.8001   18.0438 N   0  0  0  0  0  0  0  0  0  0  0  0
    8.5908   -5.7425   16.4412 C   0  0  0  0  0  0  0  0  0  0  0  0
   10.5993   -4.8981   21.6068 C   0  0  0  0  0  0  0  0  0  0  0  0
   10.4258   -3.0106   23.0998 C   0  0  0  0  0  0  0  0  0  0  0  0
   10.2148   -3.4364   25.4200 C   0  0  0  0  0  0  0  0  0  0  0  0
    9.7853   -1.1840   24.4927 C   0  0  0  0  0  0  0  0  0  0  0  0
    5.0276   -8.5227   17.5352 C   0  0  0  0  0  0  0  0  0  0  0  0
    9.8187   -2.0895   25.5800 C   0  0  0  0  0  0  0  0  0  0  0  0
    5.6473   -8.7216   15.3158 C   0  0  0  0  0  0  0  0  0  0  0  0
   10.7581   -3.1233   19.4720 N   0  0  0  0  0  0  0  0  0  0  0  0
    9.9571   -4.0573   16.8866 C   0  0  0  0  0  0  0  0  0  0  0  0
    7.6213   -6.5618   16.0087 C   0  0  0  0  0  0  0  0  0  0  0  0
   10.8583   -2.6527   20.7222 C   0  0  0  0  0  0  0  0  0  0  0  0
   10.6412   -3.5089   21.7936 C   0  0  0  0  0  0  0  0  0  0  0  0
   10.4972   -3.8968   24.1589 C   0  0  0  0  0  0  0  0  0  0  0  0
    5.9260   -8.2736   16.5517 C   0  0  0  0  0  0  0  0  0  0  0  0
    3.8816   -9.1166   17.2493 C   0  0  0  0  0  0  0  0  0  0  0  0
   10.1297   -1.6575   23.2324 C   0  0  0  0  0  0  0  0  0  0  0  0
    9.4684   -1.6929   26.7263 F   0  0  0  0  0  0  0  0  0  0  0  0
    7.7963   -7.7906   17.9837 C   0  0  0  0  0  0  0  0  0  0  0  0
   10.5884   -3.0725   16.7902 O   0  0  0  0  0  0  0  0  0  0  0  0
   10.4323   -5.3494   20.3516 C   0  0  0  0  0  0  0  0  0  0  0  0
    7.1156   -7.5454   16.8218 C   0  0  0  0  0  0  0  0  0  0  0  0
   10.3885   -4.4388   19.2773 C   0  0  0  0  0  0  0  0  0  0  0  0
    4.5160   -9.3822   15.0841 C   0  0  0  0  0  0  0  0  0  0  0  0
  1  3  4  0
  1 24  4  0
  2  6  4  0
  2 15  4  0
  3  5  4  0
  3  6  4  0
  4 21  4  0
  4 29  4  0
  5 15  4  0
  5 28  1  0
  6 16  4  0
  7 18  4  0
  7 26  4  0
  8 18  1  0
  8 19  4  0
  8 22  4  0
  9 12  4  0
  9 19  4  0
 10 12  4  0
 10 22  4  0
 11 20  4  0
 11 21  4  0
 12 23  1  0
 13 20  4  0
 13 29  4  0
 14 17  4  0
 14 28  4  0
 15 25  2  0
 16 27  4  0
 17 18  4  0
 20 27  1  0
 24 27  4  0
 26 28  4  0
M  END
$$$$

 Created by Python create_sdf_string function

 29 33  0  0  0  0  0  0  0  0999 V2000
    8.8270   -7.0288   18.4251 C   0  0  0  0  0  0  0  0  0  0  0  0
    9.1576   -4.6236   15.8860 O   0  0  0  0  0  0  0  0  0  0  0  0
    9.1509   -5.9108   17.7177 C   0  0  0  0  0  0  0  0  0  0  0  0
    3.6373   -9.5349   16.0582 N   0  0  0  0  0  0  0  0  0  0  0  0
    9.9275   -4.8001   18.0438 N   0  0  0  0  0  0  0  0  0  0  0  0
    8.5908   -5.7425   16.4412 C   0  0  0  0  0  0  0  0  0  0  0  0
   10.5993   -4.8981   21.6068 C   0  0  0  0  0  0  0  0  0  0  0  0
   10.4258   -3.0106   23.0998 C   0  0  0  0  0  0  0  0  0  0  0  0
   10.2148   -3.4364   25.4200 C   0  0  0  0  0  0  0  0  0  0  0  0
    9.7853   -1.1840   24.4927 C   0  0  0  0  0  0  0  0  0  0  0  0
    5.0276   -8.5227   17.5352 C   0  0  0  0  0  0  0  0  0  0  0  0
    9.8187   -2.0895   25.5800 C   0  0  0  0  0  0  0  0  0  0  0  0
    5.6473   -8.7216   15.3158 C   0  0  0  0  0  0  0  0  0  0  0  0
   10.7581   -3.1233   19.4720 N   0  0  0  0  0  0  0  0  0  0  0  0
    9.9571   -4.0573   16.8866 C   0  0  0  0  0  0  0  0  0  0  0  0
    7.6213   -6.5618   16.0087 C   0  0  0  0  0  0  0  0  0  0  0  0
   10.8583   -2.6527   20.7222 C   0  0  0  0  0  0  0  0  0  0  0  0
   10.6412   -3.5089   21.7936 C   0  0  0  0  0  0  0  0  0  0  0  0
   10.4972   -3.8968   24.1589 C   0  0  0  0  0  0  0  0  0  0  0  0
    5.9260   -8.2736   16.5517 C   0  0  0  0  0  0  0  0  0  0  0  0
    3.8816   -9.1166   17.2493 C   0  0  0  0  0  0  0  0  0  0  0  0
   10.1297   -1.6575   23.2324 C   0  0  0  0  0  0  0  0  0  0  0  0
    9.4684   -1.6929   26.7263 F   0  0  0  0  0  0  0  0  0  0  0  0
    7.7963   -7.7906   17.9837 C   0  0  0  0  0  0  0  0  0  0  0  0
   10.5884   -3.0725   16.7902 O   0  0  0  0  0  0  0  0  0  0  0  0
   10.4323   -5.3494   20.3516 C   0  0  0  0  0  0  0  0  0  0  0  0
    7.1156   -7.5454   16.8218 C   0  0  0  0  0  0  0  0  0  0  0  0
   10.3885   -4.4388   19.2773 C   0  0  0  0  0  0  0  0  0  0  0  0
    4.5160   -9.3822   15.0841 C   0  0  0  0  0  0  0  0  0  0  0  0
  1  3  4  0
  1 24  4  0
  2  6  4  0
  2 15  4  0
  3  5  4  0
  3  6  4  0
  4 21  4  0
  4 29  4  0
  5 15  4  0
  5 28  1  0
  6 16  4  0
  7 18  4  0
  7 26  4  0
  8 18  1  0
  8 19  4  0
  8 22  4  0
  9 12  4  0
  9 19  4  0
 10 12  4  0
 10 22  4  0
 11 20  4  0
 11 21  4  0
 12 23  1  0
 13 20  4  0
 13 29  4  0
 14 17  4  0
 14 28  4  0
 15 25  2  0
 16 27  4  0
 17 18  4  0
 20 27  1  0
 24 27  4  0
 26 28  4  0
M  END
$$$$

 Created by Python create_sdf_string function

 29 33  0  0  0  0  0  0  0  0999 V2000
    8.8270   -7.0288   18.4251 C   0  0  0  0  0  0  0  0  0  0  0  0
    9.1576   -4.6236   15.8860 O   0  0  0  0  0  0  0  0  0  0  0  0
    9.1509   -5.9108   17.7177 C   0  0  0  0  0  0  0  0  0  0  0  0
    3.6373   -9.5349   16.0582 N   0  0  0  0  0  0  0  0  0  0  0  0
    9.9275   -4.8001   18.0438 N   0  0  0  0  0  0  0  0  0  0  0  0
    8.5908   -5.7425   16.4412 C   0  0  0  0  0  0  0  0  0  0  0  0
   10.5993   -4.8981   21.6068 C   0  0  0  0  0  0  0  0  0  0  0  0
   10.4258   -3.0106   23.0998 C   0  0  0  0  0  0  0  0  0  0  0  0
   10.2148   -3.4364   25.4200 C   0  0  0  0  0  0  0  0  0  0  0  0
    9.7853   -1.1840   24.4927 C   0  0  0  0  0  0  0  0  0  0  0  0
    5.0276   -8.5227   17.5352 C   0  0  0  0  0  0  0  0  0  0  0  0
    9.8187   -2.0895   25.5800 C   0  0  0  0  0  0  0  0  0  0  0  0
    5.6473   -8.7216   15.3158 C   0  0  0  0  0  0  0  0  0  0  0  0
   10.7581   -3.1233   19.4720 N   0  0  0  0  0  0  0  0  0  0  0  0
    9.9571   -4.0573   16.8866 C   0  0  0  0  0  0  0  0  0  0  0  0
    7.6213   -6.5618   16.0087 C   0  0  0  0  0  0  0  0  0  0  0  0
   10.8583   -2.6527   20.7222 C   0  0  0  0  0  0  0  0  0  0  0  0
   10.6412   -3.5089   21.7936 C   0  0  0  0  0  0  0  0  0  0  0  0
   10.4972   -3.8968   24.1589 C   0  0  0  0  0  0  0  0  0  0  0  0
    5.9260   -8.2736   16.5517 C   0  0  0  0  0  0  0  0  0  0  0  0
    3.8816   -9.1166   17.2493 C   0  0  0  0  0  0  0  0  0  0  0  0
   10.1297   -1.6575   23.2324 C   0  0  0  0  0  0  0  0  0  0  0  0
    9.4684   -1.6929   26.7263 F   0  0  0  0  0  0  0  0  0  0  0  0
    7.7963   -7.7906   17.9837 C   0  0  0  0  0  0  0  0  0  0  0  0
   10.5884   -3.0725   16.7902 O   0  0  0  0  0  0  0  0  0  0  0  0
   10.4323   -5.3494   20.3516 C   0  0  0  0  0  0  0  0  0  0  0  0
    7.1156   -7.5454   16.8218 C   0  0  0  0  0  0  0  0  0  0  0  0
   10.3885   -4.4388   19.2773 C   0  0  0  0  0  0  0  0  0  0  0  0
    4.5160   -9.3822   15.0841 C   0  0  0  0  0  0  0  0  0  0  0  0
  1  3  4  0
  1 24  4  0
  2  6  4  0
  2 15  4  0
  3  5  4  0
  3  6  4  0
  4 21  4  0
  4 29  4  0
  5 15  4  0
  5 28  1  0
  6 16  4  0
  7 18  4  0
  7 26  4  0
  8 18  1  0
  8 19  4  0
  8 22  4  0
  9 12  4  0
  9 19  4  0
 10 12  4  0
 10 22  4  0
 11 20  4  0
 11 21  4  0
 12 23  1  0
 13 20  4  0
 13 29  4  0
 14 17  4  0
 14 28  4  0
 15 25  2  0
 16 27  4  0
 17 18  4  0
 20 27  1  0
 24 27  4  0
 26 28  4  0
M  END
$$$$

 Created by Python create_sdf_string function

 29 33  0  0  0  0  0  0  0  0999 V2000
    8.8270   -7.0288   18.4251 C   0  0  0  0  0  0  0  0  0  0  0  0
    9.1576   -4.6236   15.8860 O   0  0  0  0  0  0  0  0  0  0  0  0
    9.1509   -5.9108   17.7177 C   0  0  0  0  0  0  0  0  0  0  0  0
    3.6373   -9.5349   16.0582 N   0  0  0  0  0  0  0  0  0  0  0  0
    9.9275   -4.8001   18.0438 N   0  0  0  0  0  0  0  0  0  0  0  0
    8.5908   -5.7425   16.4412 C   0  0  0  0  0  0  0  0  0  0  0  0
   10.5993   -4.8981   21.6068 C   0  0  0  0  0  0  0  0  0  0  0  0
   10.4258   -3.0106   23.0998 C   0  0  0  0  0  0  0  0  0  0  0  0
   10.2148   -3.4364   25.4200 C   0  0  0  0  0  0  0  0  0  0  0  0
    9.7853   -1.1840   24.4927 C   0  0  0  0  0  0  0  0  0  0  0  0
    5.0276   -8.5227   17.5352 C   0  0  0  0  0  0  0  0  0  0  0  0
    9.8187   -2.0895   25.5800 C   0  0  0  0  0  0  0  0  0  0  0  0
    5.6473   -8.7216   15.3158 C   0  0  0  0  0  0  0  0  0  0  0  0
   10.7581   -3.1233   19.4720 N   0  0  0  0  0  0  0  0  0  0  0  0
    9.9571   -4.0573   16.8866 C   0  0  0  0  0  0  0  0  0  0  0  0
    7.6213   -6.5618   16.0087 C   0  0  0  0  0  0  0  0  0  0  0  0
   10.8583   -2.6527   20.7222 C   0  0  0  0  0  0  0  0  0  0  0  0
   10.6412   -3.5089   21.7936 C   0  0  0  0  0  0  0  0  0  0  0  0
   10.4972   -3.8968   24.1589 C   0  0  0  0  0  0  0  0  0  0  0  0
    5.9260   -8.2736   16.5517 C   0  0  0  0  0  0  0  0  0  0  0  0
    3.8816   -9.1166   17.2493 C   0  0  0  0  0  0  0  0  0  0  0  0
   10.1297   -1.6575   23.2324 C   0  0  0  0  0  0  0  0  0  0  0  0
    9.4684   -1.6929   26.7263 F   0  0  0  0  0  0  0  0  0  0  0  0
    7.7963   -7.7906   17.9837 C   0  0  0  0  0  0  0  0  0  0  0  0
   10.5884   -3.0725   16.7902 O   0  0  0  0  0  0  0  0  0  0  0  0
   10.4323   -5.3494   20.3516 C   0  0  0  0  0  0  0  0  0  0  0  0
    7.1156   -7.5454   16.8218 C   0  0  0  0  0  0  0  0  0  0  0  0
   10.3885   -4.4388   19.2773 C   0  0  0  0  0  0  0  0  0  0  0  0
    4.5160   -9.3822   15.0841 C   0  0  0  0  0  0  0  0  0  0  0  0
  1  3  4  0
  1 24  4  0
  2  6  4  0
  2 15  4  0
  3  5  4  0
  3  6  4  0
  4 21  4  0
  4 29  4  0
  5 15  4  0
  5 28  1  0
  6 16  4  0
  7 18  4  0
  7 26  4  0
  8 18  1  0
  8 19  4  0
  8 22  4  0
  9 12  4  0
  9 19  4  0
 10 12  4  0
 10 22  4  0
 11 20  4  0
 11 21  4  0
 12 23  1  0
 13 20  4  0
 13 29  4  0
 14 17  4  0
 14 28  4  0
 15 25  2  0
 16 27  4  0
 17 18  4  0
 20 27  1  0
 24 27  4  0
 26 28  4  0
M  END
$$$$

 Created by Python create_sdf_string function

 29 33  0  0  0  0  0  0  0  0999 V2000
    8.8270   -7.0288   18.4251 C   0  0  0  0  0  0  0  0  0  0  0  0
    9.1576   -4.6236   15.8860 O   0  0  0  0  0  0  0  0  0  0  0  0
    9.1509   -5.9108   17.7177 C   0  0  0  0  0  0  0  0  0  0  0  0
    3.6373   -9.5349   16.0582 N   0  0  0  0  0  0  0  0  0  0  0  0
    9.9275   -4.8001   18.0438 N   0  0  0  0  0  0  0  0  0  0  0  0
    8.5908   -5.7425   16.4412 C   0  0  0  0  0  0  0  0  0  0  0  0
   10.5993   -4.8981   21.6068 C   0  0  0  0  0  0  0  0  0  0  0  0
   10.4258   -3.0106   23.0998 C   0  0  0  0  0  0  0  0  0  0  0  0
   10.2148   -3.4364   25.4200 C   0  0  0  0  0  0  0  0  0  0  0  0
    9.7853   -1.1840   24.4927 C   0  0  0  0  0  0  0  0  0  0  0  0
    5.0276   -8.5227   17.5352 C   0  0  0  0  0  0  0  0  0  0  0  0
    9.8187   -2.0895   25.5800 C   0  0  0  0  0  0  0  0  0  0  0  0
    5.6473   -8.7216   15.3158 C   0  0  0  0  0  0  0  0  0  0  0  0
   10.7581   -3.1233   19.4720 N   0  0  0  0  0  0  0  0  0  0  0  0
    9.9571   -4.0573   16.8866 C   0  0  0  0  0  0  0  0  0  0  0  0
    7.6213   -6.5618   16.0087 C   0  0  0  0  0  0  0  0  0  0  0  0
   10.8583   -2.6527   20.7222 C   0  0  0  0  0  0  0  0  0  0  0  0
   10.6412   -3.5089   21.7936 C   0  0  0  0  0  0  0  0  0  0  0  0
   10.4972   -3.8968   24.1589 C   0  0  0  0  0  0  0  0  0  0  0  0
    5.9260   -8.2736   16.5517 C   0  0  0  0  0  0  0  0  0  0  0  0
    3.8816   -9.1166   17.2493 C   0  0  0  0  0  0  0  0  0  0  0  0
   10.1297   -1.6575   23.2324 C   0  0  0  0  0  0  0  0  0  0  0  0
    9.4684   -1.6929   26.7263 F   0  0  0  0  0  0  0  0  0  0  0  0
    7.7963   -7.7906   17.9837 C   0  0  0  0  0  0  0  0  0  0  0  0
   10.5884   -3.0725   16.7902 O   0  0  0  0  0  0  0  0  0  0  0  0
   10.4323   -5.3494   20.3516 C   0  0  0  0  0  0  0  0  0  0  0  0
    7.1156   -7.5454   16.8218 C   0  0  0  0  0  0  0  0  0  0  0  0
   10.3885   -4.4388   19.2773 C   0  0  0  0  0  0  0  0  0  0  0  0
    4.5160   -9.3822   15.0841 C   0  0  0  0  0  0  0  0  0  0  0  0
  1  3  4  0
  1 24  4  0
  2  6  4  0
  2 15  4  0
  3  5  4  0
  3  6  4  0
  4 21  4  0
  4 29  4  0
  5 15  4  0
  5 28  1  0
  6 16  4  0
  7 18  4  0
  7 26  4  0
  8 18  1  0
  8 19  4  0
  8 22  4  0
  9 12  4  0
  9 19  4  0
 10 12  4  0
 10 22  4  0
 11 20  4  0
 11 21  4  0
 12 23  1  0
 13 20  4  0
 13 29  4  0
 14 17  4  0
 14 28  4  0
 15 25  2  0
 16 27  4  0
 17 18  4  0
 20 27  1  0
 24 27  4  0
 26 28  4  0
M  END
$$$$

 Created by Python create_sdf_string function

 29 33  0  0  0  0  0  0  0  0999 V2000
    8.8270   -7.0288   18.4251 C   0  0  0  0  0  0  0  0  0  0  0  0
    9.1576   -4.6236   15.8860 O   0  0  0  0  0  0  0  0  0  0  0  0
    9.1509   -5.9108   17.7177 C   0  0  0  0  0  0  0  0  0  0  0  0
    3.6373   -9.5349   16.0582 N   0  0  0  0  0  0  0  0  0  0  0  0
    9.9275   -4.8001   18.0438 N   0  0  0  0  0  0  0  0  0  0  0  0
    8.5908   -5.7425   16.4412 C   0  0  0  0  0  0  0  0  0  0  0  0
   10.5993   -4.8981   21.6068 C   0  0  0  0  0  0  0  0  0  0  0  0
   10.4258   -3.0106   23.0998 C   0  0  0  0  0  0  0  0  0  0  0  0
   10.2148   -3.4364   25.4200 C   0  0  0  0  0  0  0  0  0  0  0  0
    9.7853   -1.1840   24.4927 C   0  0  0  0  0  0  0  0  0  0  0  0
    5.0276   -8.5227   17.5352 C   0  0  0  0  0  0  0  0  0  0  0  0
    9.8187   -2.0895   25.5800 C   0  0  0  0  0  0  0  0  0  0  0  0
    5.6473   -8.7216   15.3158 C   0  0  0  0  0  0  0  0  0  0  0  0
   10.7581   -3.1233   19.4720 N   0  0  0  0  0  0  0  0  0  0  0  0
    9.9571   -4.0573   16.8866 C   0  0  0  0  0  0  0  0  0  0  0  0
    7.6213   -6.5618   16.0087 C   0  0  0  0  0  0  0  0  0  0  0  0
   10.8583   -2.6527   20.7222 C   0  0  0  0  0  0  0  0  0  0  0  0
   10.6412   -3.5089   21.7936 C   0  0  0  0  0  0  0  0  0  0  0  0
   10.4972   -3.8968   24.1589 C   0  0  0  0  0  0  0  0  0  0  0  0
    5.9260   -8.2736   16.5517 C   0  0  0  0  0  0  0  0  0  0  0  0
    3.8816   -9.1166   17.2493 C   0  0  0  0  0  0  0  0  0  0  0  0
   10.1297   -1.6575   23.2324 C   0  0  0  0  0  0  0  0  0  0  0  0
    9.4684   -1.6929   26.7263 F   0  0  0  0  0  0  0  0  0  0  0  0
    7.7963   -7.7906   17.9837 C   0  0  0  0  0  0  0  0  0  0  0  0
   10.5884   -3.0725   16.7902 O   0  0  0  0  0  0  0  0  0  0  0  0
   10.4323   -5.3494   20.3516 C   0  0  0  0  0  0  0  0  0  0  0  0
    7.1156   -7.5454   16.8218 C   0  0  0  0  0  0  0  0  0  0  0  0
   10.3885   -4.4388   19.2773 C   0  0  0  0  0  0  0  0  0  0  0  0
    4.5160   -9.3822   15.0841 C   0  0  0  0  0  0  0  0  0  0  0  0
  1  3  4  0
  1 24  4  0
  2  6  4  0
  2 15  4  0
  3  5  4  0
  3  6  4  0
  4 21  4  0
  4 29  4  0
  5 15  4  0
  5 28  1  0
  6 16  4  0
  7 18  4  0
  7 26  4  0
  8 18  1  0
  8 19  4  0
  8 22  4  0
  9 12  4  0
  9 19  4  0
 10 12  4  0
 10 22  4  0
 11 20  4  0
 11 21  4  0
 12 23  1  0
 13 20  4  0
 13 29  4  0
 14 17  4  0
 14 28  4  0
 15 25  2  0
 16 27  4  0
 17 18  4  0
 20 27  1  0
 24 27  4  0
 26 28  4  0
M  END
$$$$

 Created by Python create_sdf_string function

 29 33  0  0  0  0  0  0  0  0999 V2000
    8.8270   -7.0288   18.4251 C   0  0  0  0  0  0  0  0  0  0  0  0
    9.1576   -4.6236   15.8860 O   0  0  0  0  0  0  0  0  0  0  0  0
    9.1509   -5.9108   17.7177 C   0  0  0  0  0  0  0  0  0  0  0  0
    3.6373   -9.5349   16.0582 N   0  0  0  0  0  0  0  0  0  0  0  0
    9.9275   -4.8001   18.0438 N   0  0  0  0  0  0  0  0  0  0  0  0
    8.5908   -5.7425   16.4412 C   0  0  0  0  0  0  0  0  0  0  0  0
   10.5993   -4.8981   21.6068 C   0  0  0  0  0  0  0  0  0  0  0  0
   10.4258   -3.0106   23.0998 C   0  0  0  0  0  0  0  0  0  0  0  0
   10.2148   -3.4364   25.4200 C   0  0  0  0  0  0  0  0  0  0  0  0
    9.7853   -1.1840   24.4927 C   0  0  0  0  0  0  0  0  0  0  0  0
    5.0276   -8.5227   17.5352 C   0  0  0  0  0  0  0  0  0  0  0  0
    9.8187   -2.0895   25.5800 C   0  0  0  0  0  0  0  0  0  0  0  0
    5.6473   -8.7216   15.3158 C   0  0  0  0  0  0  0  0  0  0  0  0
   10.7581   -3.1233   19.4720 N   0  0  0  0  0  0  0  0  0  0  0  0
    9.9571   -4.0573   16.8866 C   0  0  0  0  0  0  0  0  0  0  0  0
    7.6213   -6.5618   16.0087 C   0  0  0  0  0  0  0  0  0  0  0  0
   10.8583   -2.6527   20.7222 C   0  0  0  0  0  0  0  0  0  0  0  0
   10.6412   -3.5089   21.7936 C   0  0  0  0  0  0  0  0  0  0  0  0
   10.4972   -3.8968   24.1589 C   0  0  0  0  0  0  0  0  0  0  0  0
    5.9260   -8.2736   16.5517 C   0  0  0  0  0  0  0  0  0  0  0  0
    3.8816   -9.1166   17.2493 C   0  0  0  0  0  0  0  0  0  0  0  0
   10.1297   -1.6575   23.2324 C   0  0  0  0  0  0  0  0  0  0  0  0
    9.4684   -1.6929   26.7263 F   0  0  0  0  0  0  0  0  0  0  0  0
    7.7963   -7.7906   17.9837 C   0  0  0  0  0  0  0  0  0  0  0  0
   10.5884   -3.0725   16.7902 O   0  0  0  0  0  0  0  0  0  0  0  0
   10.4323   -5.3494   20.3516 C   0  0  0  0  0  0  0  0  0  0  0  0
    7.1156   -7.5454   16.8218 C   0  0  0  0  0  0  0  0  0  0  0  0
   10.3885   -4.4388   19.2773 C   0  0  0  0  0  0  0  0  0  0  0  0
    4.5160   -9.3822   15.0841 C   0  0  0  0  0  0  0  0  0  0  0  0
  1  3  4  0
  1 24  4  0
  2  6  4  0
  2 15  4  0
  3  5  4  0
  3  6  4  0
  4 21  4  0
  4 29  4  0
  5 15  4  0
  5 28  1  0
  6 16  4  0
  7 18  4  0
  7 26  4  0
  8 18  1  0
  8 19  4  0
  8 22  4  0
  9 12  4  0
  9 19  4  0
 10 12  4  0
 10 22  4  0
 11 20  4  0
 11 21  4  0
 12 23  1  0
 13 20  4  0
 13 29  4  0
 14 17  4  0
 14 28  4  0
 15 25  2  0
 16 27  4  0
 17 18  4  0
 20 27  1  0
 24 27  4  0
 26 28  4  0
M  END
$$$$

 Created by Python create_sdf_string function

 29 33  0  0  0  0  0  0  0  0999 V2000
    8.8270   -7.0288   18.4251 C   0  0  0  0  0  0  0  0  0  0  0  0
    9.1576   -4.6236   15.8860 O   0  0  0  0  0  0  0  0  0  0  0  0
    9.1509   -5.9108   17.7177 C   0  0  0  0  0  0  0  0  0  0  0  0
    3.6373   -9.5349   16.0582 N   0  0  0  0  0  0  0  0  0  0  0  0
    9.9275   -4.8001   18.0438 N   0  0  0  0  0  0  0  0  0  0  0  0
    8.5908   -5.7425   16.4412 C   0  0  0  0  0  0  0  0  0  0  0  0
   10.5993   -4.8981   21.6068 C   0  0  0  0  0  0  0  0  0  0  0  0
   10.4258   -3.0106   23.0998 C   0  0  0  0  0  0  0  0  0  0  0  0
   10.2148   -3.4364   25.4200 C   0  0  0  0  0  0  0  0  0  0  0  0
    9.7853   -1.1840   24.4927 C   0  0  0  0  0  0  0  0  0  0  0  0
    5.0276   -8.5227   17.5352 C   0  0  0  0  0  0  0  0  0  0  0  0
    9.8187   -2.0895   25.5800 C   0  0  0  0  0  0  0  0  0  0  0  0
    5.6473   -8.7216   15.3158 C   0  0  0  0  0  0  0  0  0  0  0  0
   10.7581   -3.1233   19.4720 N   0  0  0  0  0  0  0  0  0  0  0  0
    9.9571   -4.0573   16.8866 C   0  0  0  0  0  0  0  0  0  0  0  0
    7.6213   -6.5618   16.0087 C   0  0  0  0  0  0  0  0  0  0  0  0
   10.8583   -2.6527   20.7222 C   0  0  0  0  0  0  0  0  0  0  0  0
   10.6412   -3.5089   21.7936 C   0  0  0  0  0  0  0  0  0  0  0  0
   10.4972   -3.8968   24.1589 C   0  0  0  0  0  0  0  0  0  0  0  0
    5.9260   -8.2736   16.5517 C   0  0  0  0  0  0  0  0  0  0  0  0
    3.8816   -9.1166   17.2493 C   0  0  0  0  0  0  0  0  0  0  0  0
   10.1297   -1.6575   23.2324 C   0  0  0  0  0  0  0  0  0  0  0  0
    9.4684   -1.6929   26.7263 F   0  0  0  0  0  0  0  0  0  0  0  0
    7.7963   -7.7906   17.9837 C   0  0  0  0  0  0  0  0  0  0  0  0
   10.5884   -3.0725   16.7902 O   0  0  0  0  0  0  0  0  0  0  0  0
   10.4323   -5.3494   20.3516 C   0  0  0  0  0  0  0  0  0  0  0  0
    7.1156   -7.5454   16.8218 C   0  0  0  0  0  0  0  0  0  0  0  0
   10.3885   -4.4388   19.2773 C   0  0  0  0  0  0  0  0  0  0  0  0
    4.5160   -9.3822   15.0841 C   0  0  0  0  0  0  0  0  0  0  0  0
  1  3  4  0
  1 24  4  0
  2  6  4  0
  2 15  4  0
  3  5  4  0
  3  6  4  0
  4 21  4  0
  4 29  4  0
  5 15  4  0
  5 28  1  0
  6 16  4  0
  7 18  4  0
  7 26  4  0
  8 18  1  0
  8 19  4  0
  8 22  4  0
  9 12  4  0
  9 19  4  0
 10 12  4  0
 10 22  4  0
 11 20  4  0
 11 21  4  0
 12 23  1  0
 13 20  4  0
 13 29  4  0
 14 17  4  0
 14 28  4  0
 15 25  2  0
 16 27  4  0
 17 18  4  0
 20 27  1  0
 24 27  4  0
 26 28  4  0
M  END
$$$$

 Created by Python create_sdf_string function

 29 33  0  0  0  0  0  0  0  0999 V2000
    8.8270   -7.0288   18.4251 C   0  0  0  0  0  0  0  0  0  0  0  0
    9.1576   -4.6236   15.8860 O   0  0  0  0  0  0  0  0  0  0  0  0
    9.1509   -5.9108   17.7177 C   0  0  0  0  0  0  0  0  0  0  0  0
    3.6373   -9.5349   16.0582 N   0  0  0  0  0  0  0  0  0  0  0  0
    9.9275   -4.8001   18.0438 N   0  0  0  0  0  0  0  0  0  0  0  0
    8.5908   -5.7425   16.4412 C   0  0  0  0  0  0  0  0  0  0  0  0
   10.5993   -4.8981   21.6068 C   0  0  0  0  0  0  0  0  0  0  0  0
   10.4258   -3.0106   23.0998 C   0  0  0  0  0  0  0  0  0  0  0  0
   10.2148   -3.4364   25.4200 C   0  0  0  0  0  0  0  0  0  0  0  0
    9.7853   -1.1840   24.4927 C   0  0  0  0  0  0  0  0  0  0  0  0
    5.0276   -8.5227   17.5352 C   0  0  0  0  0  0  0  0  0  0  0  0
    9.8187   -2.0895   25.5800 C   0  0  0  0  0  0  0  0  0  0  0  0
    5.6473   -8.7216   15.3158 C   0  0  0  0  0  0  0  0  0  0  0  0
   10.7581   -3.1233   19.4720 N   0  0  0  0  0  0  0  0  0  0  0  0
    9.9571   -4.0573   16.8866 C   0  0  0  0  0  0  0  0  0  0  0  0
    7.6213   -6.5618   16.0087 C   0  0  0  0  0  0  0  0  0  0  0  0
   10.8583   -2.6527   20.7222 C   0  0  0  0  0  0  0  0  0  0  0  0
   10.6412   -3.5089   21.7936 C   0  0  0  0  0  0  0  0  0  0  0  0
   10.4972   -3.8968   24.1589 C   0  0  0  0  0  0  0  0  0  0  0  0
    5.9260   -8.2736   16.5517 C   0  0  0  0  0  0  0  0  0  0  0  0
    3.8816   -9.1166   17.2493 C   0  0  0  0  0  0  0  0  0  0  0  0
   10.1297   -1.6575   23.2324 C   0  0  0  0  0  0  0  0  0  0  0  0
    9.4684   -1.6929   26.7263 F   0  0  0  0  0  0  0  0  0  0  0  0
    7.7963   -7.7906   17.9837 C   0  0  0  0  0  0  0  0  0  0  0  0
   10.5884   -3.0725   16.7902 O   0  0  0  0  0  0  0  0  0  0  0  0
   10.4323   -5.3494   20.3516 C   0  0  0  0  0  0  0  0  0  0  0  0
    7.1156   -7.5454   16.8218 C   0  0  0  0  0  0  0  0  0  0  0  0
   10.3885   -4.4388   19.2773 C   0  0  0  0  0  0  0  0  0  0  0  0
    4.5160   -9.3822   15.0841 C   0  0  0  0  0  0  0  0  0  0  0  0
  1  3  4  0
  1 24  4  0
  2  6  4  0
  2 15  4  0
  3  5  4  0
  3  6  4  0
  4 21  4  0
  4 29  4  0
  5 15  4  0
  5 28  1  0
  6 16  4  0
  7 18  4  0
  7 26  4  0
  8 18  1  0
  8 19  4  0
  8 22  4  0
  9 12  4  0
  9 19  4  0
 10 12  4  0
 10 22  4  0
 11 20  4  0
 11 21  4  0
 12 23  1  0
 13 20  4  0
 13 29  4  0
 14 17  4  0
 14 28  4  0
 15 25  2  0
 16 27  4  0
 17 18  4  0
 20 27  1  0
 24 27  4  0
 26 28  4  0
M  END
$$$$

 Created by Python create_sdf_string function

 29 33  0  0  0  0  0  0  0  0999 V2000
    8.8270   -7.0288   18.4251 C   0  0  0  0  0  0  0  0  0  0  0  0
    9.1576   -4.6236   15.8860 O   0  0  0  0  0  0  0  0  0  0  0  0
    9.1509   -5.9108   17.7177 C   0  0  0  0  0  0  0  0  0  0  0  0
    3.6373   -9.5349   16.0582 N   0  0  0  0  0  0  0  0  0  0  0  0
    9.9275   -4.8001   18.0438 N   0  0  0  0  0  0  0  0  0  0  0  0
    8.5908   -5.7425   16.4412 C   0  0  0  0  0  0  0  0  0  0  0  0
   10.5993   -4.8981   21.6068 C   0  0  0  0  0  0  0  0  0  0  0  0
   10.4258   -3.0106   23.0998 C   0  0  0  0  0  0  0  0  0  0  0  0
   10.2148   -3.4364   25.4200 C   0  0  0  0  0  0  0  0  0  0  0  0
    9.7853   -1.1840   24.4927 C   0  0  0  0  0  0  0  0  0  0  0  0
    5.0276   -8.5227   17.5352 C   0  0  0  0  0  0  0  0  0  0  0  0
    9.8187   -2.0895   25.5800 C   0  0  0  0  0  0  0  0  0  0  0  0
    5.6473   -8.7216   15.3158 C   0  0  0  0  0  0  0  0  0  0  0  0
   10.7581   -3.1233   19.4720 N   0  0  0  0  0  0  0  0  0  0  0  0
    9.9571   -4.0573   16.8866 C   0  0  0  0  0  0  0  0  0  0  0  0
    7.6213   -6.5618   16.0087 C   0  0  0  0  0  0  0  0  0  0  0  0
   10.8583   -2.6527   20.7222 C   0  0  0  0  0  0  0  0  0  0  0  0
   10.6412   -3.5089   21.7936 C   0  0  0  0  0  0  0  0  0  0  0  0
   10.4972   -3.8968   24.1589 C   0  0  0  0  0  0  0  0  0  0  0  0
    5.9260   -8.2736   16.5517 C   0  0  0  0  0  0  0  0  0  0  0  0
    3.8816   -9.1166   17.2493 C   0  0  0  0  0  0  0  0  0  0  0  0
   10.1297   -1.6575   23.2324 C   0  0  0  0  0  0  0  0  0  0  0  0
    9.4684   -1.6929   26.7263 F   0  0  0  0  0  0  0  0  0  0  0  0
    7.7963   -7.7906   17.9837 C   0  0  0  0  0  0  0  0  0  0  0  0
   10.5884   -3.0725   16.7902 O   0  0  0  0  0  0  0  0  0  0  0  0
   10.4323   -5.3494   20.3516 C   0  0  0  0  0  0  0  0  0  0  0  0
    7.1156   -7.5454   16.8218 C   0  0  0  0  0  0  0  0  0  0  0  0
   10.3885   -4.4388   19.2773 C   0  0  0  0  0  0  0  0  0  0  0  0
    4.5160   -9.3822   15.0841 C   0  0  0  0  0  0  0  0  0  0  0  0
  1  3  4  0
  1 24  4  0
  2  6  4  0
  2 15  4  0
  3  5  4  0
  3  6  4  0
  4 21  4  0
  4 29  4  0
  5 15  4  0
  5 28  1  0
  6 16  4  0
  7 18  4  0
  7 26  4  0
  8 18  1  0
  8 19  4  0
  8 22  4  0
  9 12  4  0
  9 19  4  0
 10 12  4  0
 10 22  4  0
 11 20  4  0
 11 21  4  0
 12 23  1  0
 13 20  4  0
 13 29  4  0
 14 17  4  0
 14 28  4  0
 15 25  2  0
 16 27  4  0
 17 18  4  0
 20 27  1  0
 24 27  4  0
 26 28  4  0
M  END
$$$$

 Created by Python create_sdf_string function

 29 33  0  0  0  0  0  0  0  0999 V2000
    8.8270   -7.0288   18.4251 C   0  0  0  0  0  0  0  0  0  0  0  0
    9.1576   -4.6236   15.8860 O   0  0  0  0  0  0  0  0  0  0  0  0
    9.1509   -5.9108   17.7177 C   0  0  0  0  0  0  0  0  0  0  0  0
    3.6373   -9.5349   16.0582 N   0  0  0  0  0  0  0  0  0  0  0  0
    9.9275   -4.8001   18.0438 N   0  0  0  0  0  0  0  0  0  0  0  0
    8.5908   -5.7425   16.4412 C   0  0  0  0  0  0  0  0  0  0  0  0
   10.5993   -4.8981   21.6068 C   0  0  0  0  0  0  0  0  0  0  0  0
   10.4258   -3.0106   23.0998 C   0  0  0  0  0  0  0  0  0  0  0  0
   10.2148   -3.4364   25.4200 C   0  0  0  0  0  0  0  0  0  0  0  0
    9.7853   -1.1840   24.4927 C   0  0  0  0  0  0  0  0  0  0  0  0
    5.0276   -8.5227   17.5352 C   0  0  0  0  0  0  0  0  0  0  0  0
    9.8187   -2.0895   25.5800 C   0  0  0  0  0  0  0  0  0  0  0  0
    5.6473   -8.7216   15.3158 C   0  0  0  0  0  0  0  0  0  0  0  0
   10.7581   -3.1233   19.4720 N   0  0  0  0  0  0  0  0  0  0  0  0
    9.9571   -4.0573   16.8866 C   0  0  0  0  0  0  0  0  0  0  0  0
    7.6213   -6.5618   16.0087 C   0  0  0  0  0  0  0  0  0  0  0  0
   10.8583   -2.6527   20.7222 C   0  0  0  0  0  0  0  0  0  0  0  0
   10.6412   -3.5089   21.7936 C   0  0  0  0  0  0  0  0  0  0  0  0
   10.4972   -3.8968   24.1589 C   0  0  0  0  0  0  0  0  0  0  0  0
    5.9260   -8.2736   16.5517 C   0  0  0  0  0  0  0  0  0  0  0  0
    3.8816   -9.1166   17.2493 C   0  0  0  0  0  0  0  0  0  0  0  0
   10.1297   -1.6575   23.2324 C   0  0  0  0  0  0  0  0  0  0  0  0
    9.4684   -1.6929   26.7263 F   0  0  0  0  0  0  0  0  0  0  0  0
    7.7963   -7.7906   17.9837 C   0  0  0  0  0  0  0  0  0  0  0  0
   10.5884   -3.0725   16.7902 O   0  0  0  0  0  0  0  0  0  0  0  0
   10.4323   -5.3494   20.3516 C   0  0  0  0  0  0  0  0  0  0  0  0
    7.1156   -7.5454   16.8218 C   0  0  0  0  0  0  0  0  0  0  0  0
   10.3885   -4.4388   19.2773 C   0  0  0  0  0  0  0  0  0  0  0  0
    4.5160   -9.3822   15.0841 C   0  0  0  0  0  0  0  0  0  0  0  0
  1  3  4  0
  1 24  4  0
  2  6  4  0
  2 15  4  0
  3  5  4  0
  3  6  4  0
  4 21  4  0
  4 29  4  0
  5 15  4  0
  5 28  1  0
  6 16  4  0
  7 18  4  0
  7 26  4  0
  8 18  1  0
  8 19  4  0
  8 22  4  0
  9 12  4  0
  9 19  4  0
 10 12  4  0
 10 22  4  0
 11 20  4  0
 11 21  4  0
 12 23  1  0
 13 20  4  0
 13 29  4  0
 14 17  4  0
 14 28  4  0
 15 25  2  0
 16 27  4  0
 17 18  4  0
 20 27  1  0
 24 27  4  0
 26 28  4  0
M  END
$$$$

 Created by Python create_sdf_string function

 29 33  0  0  0  0  0  0  0  0999 V2000
    8.8270   -7.0288   18.4251 C   0  0  0  0  0  0  0  0  0  0  0  0
    9.1576   -4.6236   15.8860 O   0  0  0  0  0  0  0  0  0  0  0  0
    9.1509   -5.9108   17.7177 C   0  0  0  0  0  0  0  0  0  0  0  0
    3.6373   -9.5349   16.0582 N   0  0  0  0  0  0  0  0  0  0  0  0
    9.9275   -4.8001   18.0438 N   0  0  0  0  0  0  0  0  0  0  0  0
    8.5908   -5.7425   16.4412 C   0  0  0  0  0  0  0  0  0  0  0  0
   10.5993   -4.8981   21.6068 C   0  0  0  0  0  0  0  0  0  0  0  0
   10.4258   -3.0106   23.0998 C   0  0  0  0  0  0  0  0  0  0  0  0
   10.2148   -3.4364   25.4200 C   0  0  0  0  0  0  0  0  0  0  0  0
    9.7853   -1.1840   24.4927 C   0  0  0  0  0  0  0  0  0  0  0  0
    5.0276   -8.5227   17.5352 C   0  0  0  0  0  0  0  0  0  0  0  0
    9.8187   -2.0895   25.5800 C   0  0  0  0  0  0  0  0  0  0  0  0
    5.6473   -8.7216   15.3158 C   0  0  0  0  0  0  0  0  0  0  0  0
   10.7581   -3.1233   19.4720 N   0  0  0  0  0  0  0  0  0  0  0  0
    9.9571   -4.0573   16.8866 C   0  0  0  0  0  0  0  0  0  0  0  0
    7.6213   -6.5618   16.0087 C   0  0  0  0  0  0  0  0  0  0  0  0
   10.8583   -2.6527   20.7222 C   0  0  0  0  0  0  0  0  0  0  0  0
   10.6412   -3.5089   21.7936 C   0  0  0  0  0  0  0  0  0  0  0  0
   10.4972   -3.8968   24.1589 C   0  0  0  0  0  0  0  0  0  0  0  0
    5.9260   -8.2736   16.5517 C   0  0  0  0  0  0  0  0  0  0  0  0
    3.8816   -9.1166   17.2493 C   0  0  0  0  0  0  0  0  0  0  0  0
   10.1297   -1.6575   23.2324 C   0  0  0  0  0  0  0  0  0  0  0  0
    9.4684   -1.6929   26.7263 F   0  0  0  0  0  0  0  0  0  0  0  0
    7.7963   -7.7906   17.9837 C   0  0  0  0  0  0  0  0  0  0  0  0
   10.5884   -3.0725   16.7902 O   0  0  0  0  0  0  0  0  0  0  0  0
   10.4323   -5.3494   20.3516 C   0  0  0  0  0  0  0  0  0  0  0  0
    7.1156   -7.5454   16.8218 C   0  0  0  0  0  0  0  0  0  0  0  0
   10.3885   -4.4388   19.2773 C   0  0  0  0  0  0  0  0  0  0  0  0
    4.5160   -9.3822   15.0841 C   0  0  0  0  0  0  0  0  0  0  0  0
  1  3  4  0
  1 24  4  0
  2  6  4  0
  2 15  4  0
  3  5  4  0
  3  6  4  0
  4 21  4  0
  4 29  4  0
  5 15  4  0
  5 28  1  0
  6 16  4  0
  7 18  4  0
  7 26  4  0
  8 18  1  0
  8 19  4  0
  8 22  4  0
  9 12  4  0
  9 19  4  0
 10 12  4  0
 10 22  4  0
 11 20  4  0
 11 21  4  0
 12 23  1  0
 13 20  4  0
 13 29  4  0
 14 17  4  0
 14 28  4  0
 15 25  2  0
 16 27  4  0
 17 18  4  0
 20 27  1  0
 24 27  4  0
 26 28  4  0
M  END
$$$$

 Created by Python create_sdf_string function

 29 33  0  0  0  0  0  0  0  0999 V2000
    8.8270   -7.0288   18.4251 C   0  0  0  0  0  0  0  0  0  0  0  0
    9.1576   -4.6236   15.8860 O   0  0  0  0  0  0  0  0  0  0  0  0
    9.1509   -5.9108   17.7177 C   0  0  0  0  0  0  0  0  0  0  0  0
    3.6373   -9.5349   16.0582 N   0  0  0  0  0  0  0  0  0  0  0  0
    9.9275   -4.8001   18.0438 N   0  0  0  0  0  0  0  0  0  0  0  0
    8.5908   -5.7425   16.4412 C   0  0  0  0  0  0  0  0  0  0  0  0
   10.5993   -4.8981   21.6068 C   0  0  0  0  0  0  0  0  0  0  0  0
   10.4258   -3.0106   23.0998 C   0  0  0  0  0  0  0  0  0  0  0  0
   10.2148   -3.4364   25.4200 C   0  0  0  0  0  0  0  0  0  0  0  0
    9.7853   -1.1840   24.4927 C   0  0  0  0  0  0  0  0  0  0  0  0
    5.0276   -8.5227   17.5352 C   0  0  0  0  0  0  0  0  0  0  0  0
    9.8187   -2.0895   25.5800 C   0  0  0  0  0  0  0  0  0  0  0  0
    5.6473   -8.7216   15.3158 C   0  0  0  0  0  0  0  0  0  0  0  0
   10.7581   -3.1233   19.4720 N   0  0  0  0  0  0  0  0  0  0  0  0
    9.9571   -4.0573   16.8866 C   0  0  0  0  0  0  0  0  0  0  0  0
    7.6213   -6.5618   16.0087 C   0  0  0  0  0  0  0  0  0  0  0  0
   10.8583   -2.6527   20.7222 C   0  0  0  0  0  0  0  0  0  0  0  0
   10.6412   -3.5089   21.7936 C   0  0  0  0  0  0  0  0  0  0  0  0
   10.4972   -3.8968   24.1589 C   0  0  0  0  0  0  0  0  0  0  0  0
    5.9260   -8.2736   16.5517 C   0  0  0  0  0  0  0  0  0  0  0  0
    3.8816   -9.1166   17.2493 C   0  0  0  0  0  0  0  0  0  0  0  0
   10.1297   -1.6575   23.2324 C   0  0  0  0  0  0  0  0  0  0  0  0
    9.4684   -1.6929   26.7263 F   0  0  0  0  0  0  0  0  0  0  0  0
    7.7963   -7.7906   17.9837 C   0  0  0  0  0  0  0  0  0  0  0  0
   10.5884   -3.0725   16.7902 O   0  0  0  0  0  0  0  0  0  0  0  0
   10.4323   -5.3494   20.3516 C   0  0  0  0  0  0  0  0  0  0  0  0
    7.1156   -7.5454   16.8218 C   0  0  0  0  0  0  0  0  0  0  0  0
   10.3885   -4.4388   19.2773 C   0  0  0  0  0  0  0  0  0  0  0  0
    4.5160   -9.3822   15.0841 C   0  0  0  0  0  0  0  0  0  0  0  0
  1  3  4  0
  1 24  4  0
  2  6  4  0
  2 15  4  0
  3  5  4  0
  3  6  4  0
  4 21  4  0
  4 29  4  0
  5 15  4  0
  5 28  1  0
  6 16  4  0
  7 18  4  0
  7 26  4  0
  8 18  1  0
  8 19  4  0
  8 22  4  0
  9 12  4  0
  9 19  4  0
 10 12  4  0
 10 22  4  0
 11 20  4  0
 11 21  4  0
 12 23  1  0
 13 20  4  0
 13 29  4  0
 14 17  4  0
 14 28  4  0
 15 25  2  0
 16 27  4  0
 17 18  4  0
 20 27  1  0
 24 27  4  0
 26 28  4  0
M  END
$$$$

 Created by Python create_sdf_string function

 29 33  0  0  0  0  0  0  0  0999 V2000
    8.8270   -7.0288   18.4251 C   0  0  0  0  0  0  0  0  0  0  0  0
    9.1576   -4.6236   15.8860 O   0  0  0  0  0  0  0  0  0  0  0  0
    9.1509   -5.9108   17.7177 C   0  0  0  0  0  0  0  0  0  0  0  0
    3.6373   -9.5349   16.0582 N   0  0  0  0  0  0  0  0  0  0  0  0
    9.9275   -4.8001   18.0438 N   0  0  0  0  0  0  0  0  0  0  0  0
    8.5908   -5.7425   16.4412 C   0  0  0  0  0  0  0  0  0  0  0  0
   10.5993   -4.8981   21.6068 C   0  0  0  0  0  0  0  0  0  0  0  0
   10.4258   -3.0106   23.0998 C   0  0  0  0  0  0  0  0  0  0  0  0
   10.2148   -3.4364   25.4200 C   0  0  0  0  0  0  0  0  0  0  0  0
    9.7853   -1.1840   24.4927 C   0  0  0  0  0  0  0  0  0  0  0  0
    5.0276   -8.5227   17.5352 C   0  0  0  0  0  0  0  0  0  0  0  0
    9.8187   -2.0895   25.5800 C   0  0  0  0  0  0  0  0  0  0  0  0
    5.6473   -8.7216   15.3158 C   0  0  0  0  0  0  0  0  0  0  0  0
   10.7581   -3.1233   19.4720 N   0  0  0  0  0  0  0  0  0  0  0  0
    9.9571   -4.0573   16.8866 C   0  0  0  0  0  0  0  0  0  0  0  0
    7.6213   -6.5618   16.0087 C   0  0  0  0  0  0  0  0  0  0  0  0
   10.8583   -2.6527   20.7222 C   0  0  0  0  0  0  0  0  0  0  0  0
   10.6412   -3.5089   21.7936 C   0  0  0  0  0  0  0  0  0  0  0  0
   10.4972   -3.8968   24.1589 C   0  0  0  0  0  0  0  0  0  0  0  0
    5.9260   -8.2736   16.5517 C   0  0  0  0  0  0  0  0  0  0  0  0
    3.8816   -9.1166   17.2493 C   0  0  0  0  0  0  0  0  0  0  0  0
   10.1297   -1.6575   23.2324 C   0  0  0  0  0  0  0  0  0  0  0  0
    9.4684   -1.6929   26.7263 F   0  0  0  0  0  0  0  0  0  0  0  0
    7.7963   -7.7906   17.9837 C   0  0  0  0  0  0  0  0  0  0  0  0
   10.5884   -3.0725   16.7902 O   0  0  0  0  0  0  0  0  0  0  0  0
   10.4323   -5.3494   20.3516 C   0  0  0  0  0  0  0  0  0  0  0  0
    7.1156   -7.5454   16.8218 C   0  0  0  0  0  0  0  0  0  0  0  0
   10.3885   -4.4388   19.2773 C   0  0  0  0  0  0  0  0  0  0  0  0
    4.5160   -9.3822   15.0841 C   0  0  0  0  0  0  0  0  0  0  0  0
  1  3  4  0
  1 24  4  0
  2  6  4  0
  2 15  4  0
  3  5  4  0
  3  6  4  0
  4 21  4  0
  4 29  4  0
  5 15  4  0
  5 28  1  0
  6 16  4  0
  7 18  4  0
  7 26  4  0
  8 18  1  0
  8 19  4  0
  8 22  4  0
  9 12  4  0
  9 19  4  0
 10 12  4  0
 10 22  4  0
 11 20  4  0
 11 21  4  0
 12 23  1  0
 13 20  4  0
 13 29  4  0
 14 17  4  0
 14 28  4  0
 15 25  2  0
 16 27  4  0
 17 18  4  0
 20 27  1  0
 24 27  4  0
 26 28  4  0
M  END
$$$$

 Created by Python create_sdf_string function

 29 33  0  0  0  0  0  0  0  0999 V2000
    8.8270   -7.0288   18.4251 C   0  0  0  0  0  0  0  0  0  0  0  0
    9.1576   -4.6236   15.8860 O   0  0  0  0  0  0  0  0  0  0  0  0
    9.1509   -5.9108   17.7177 C   0  0  0  0  0  0  0  0  0  0  0  0
    3.6373   -9.5349   16.0582 N   0  0  0  0  0  0  0  0  0  0  0  0
    9.9275   -4.8001   18.0438 N   0  0  0  0  0  0  0  0  0  0  0  0
    8.5908   -5.7425   16.4412 C   0  0  0  0  0  0  0  0  0  0  0  0
   10.5993   -4.8981   21.6068 C   0  0  0  0  0  0  0  0  0  0  0  0
   10.4258   -3.0106   23.0998 C   0  0  0  0  0  0  0  0  0  0  0  0
   10.2148   -3.4364   25.4200 C   0  0  0  0  0  0  0  0  0  0  0  0
    9.7853   -1.1840   24.4927 C   0  0  0  0  0  0  0  0  0  0  0  0
    5.0276   -8.5227   17.5352 C   0  0  0  0  0  0  0  0  0  0  0  0
    9.8187   -2.0895   25.5800 C   0  0  0  0  0  0  0  0  0  0  0  0
    5.6473   -8.7216   15.3158 C   0  0  0  0  0  0  0  0  0  0  0  0
   10.7581   -3.1233   19.4720 N   0  0  0  0  0  0  0  0  0  0  0  0
    9.9571   -4.0573   16.8866 C   0  0  0  0  0  0  0  0  0  0  0  0
    7.6213   -6.5618   16.0087 C   0  0  0  0  0  0  0  0  0  0  0  0
   10.8583   -2.6527   20.7222 C   0  0  0  0  0  0  0  0  0  0  0  0
   10.6412   -3.5089   21.7936 C   0  0  0  0  0  0  0  0  0  0  0  0
   10.4972   -3.8968   24.1589 C   0  0  0  0  0  0  0  0  0  0  0  0
    5.9260   -8.2736   16.5517 C   0  0  0  0  0  0  0  0  0  0  0  0
    3.8816   -9.1166   17.2493 C   0  0  0  0  0  0  0  0  0  0  0  0
   10.1297   -1.6575   23.2324 C   0  0  0  0  0  0  0  0  0  0  0  0
    9.4684   -1.6929   26.7263 F   0  0  0  0  0  0  0  0  0  0  0  0
    7.7963   -7.7906   17.9837 C   0  0  0  0  0  0  0  0  0  0  0  0
   10.5884   -3.0725   16.7902 O   0  0  0  0  0  0  0  0  0  0  0  0
   10.4323   -5.3494   20.3516 C   0  0  0  0  0  0  0  0  0  0  0  0
    7.1156   -7.5454   16.8218 C   0  0  0  0  0  0  0  0  0  0  0  0
   10.3885   -4.4388   19.2773 C   0  0  0  0  0  0  0  0  0  0  0  0
    4.5160   -9.3822   15.0841 C   0  0  0  0  0  0  0  0  0  0  0  0
  1  3  4  0
  1 24  4  0
  2  6  4  0
  2 15  4  0
  3  5  4  0
  3  6  4  0
  4 21  4  0
  4 29  4  0
  5 15  4  0
  5 28  1  0
  6 16  4  0
  7 18  4  0
  7 26  4  0
  8 18  1  0
  8 19  4  0
  8 22  4  0
  9 12  4  0
  9 19  4  0
 10 12  4  0
 10 22  4  0
 11 20  4  0
 11 21  4  0
 12 23  1  0
 13 20  4  0
 13 29  4  0
 14 17  4  0
 14 28  4  0
 15 25  2  0
 16 27  4  0
 17 18  4  0
 20 27  1  0
 24 27  4  0
 26 28  4  0
M  END
$$$$

 Created by Python create_sdf_string function

 29 33  0  0  0  0  0  0  0  0999 V2000
    8.8270   -7.0288   18.4251 C   0  0  0  0  0  0  0  0  0  0  0  0
    9.1576   -4.6236   15.8860 O   0  0  0  0  0  0  0  0  0  0  0  0
    9.1509   -5.9108   17.7177 C   0  0  0  0  0  0  0  0  0  0  0  0
    3.6373   -9.5349   16.0582 N   0  0  0  0  0  0  0  0  0  0  0  0
    9.9275   -4.8001   18.0438 N   0  0  0  0  0  0  0  0  0  0  0  0
    8.5908   -5.7425   16.4412 C   0  0  0  0  0  0  0  0  0  0  0  0
   10.5993   -4.8981   21.6068 C   0  0  0  0  0  0  0  0  0  0  0  0
   10.4258   -3.0106   23.0998 C   0  0  0  0  0  0  0  0  0  0  0  0
   10.2148   -3.4364   25.4200 C   0  0  0  0  0  0  0  0  0  0  0  0
    9.7853   -1.1840   24.4927 C   0  0  0  0  0  0  0  0  0  0  0  0
    5.0276   -8.5227   17.5352 C   0  0  0  0  0  0  0  0  0  0  0  0
    9.8187   -2.0895   25.5800 C   0  0  0  0  0  0  0  0  0  0  0  0
    5.6473   -8.7216   15.3158 C   0  0  0  0  0  0  0  0  0  0  0  0
   10.7581   -3.1233   19.4720 N   0  0  0  0  0  0  0  0  0  0  0  0
    9.9571   -4.0573   16.8866 C   0  0  0  0  0  0  0  0  0  0  0  0
    7.6213   -6.5618   16.0087 C   0  0  0  0  0  0  0  0  0  0  0  0
   10.8583   -2.6527   20.7222 C   0  0  0  0  0  0  0  0  0  0  0  0
   10.6412   -3.5089   21.7936 C   0  0  0  0  0  0  0  0  0  0  0  0
   10.4972   -3.8968   24.1589 C   0  0  0  0  0  0  0  0  0  0  0  0
    5.9260   -8.2736   16.5517 C   0  0  0  0  0  0  0  0  0  0  0  0
    3.8816   -9.1166   17.2493 C   0  0  0  0  0  0  0  0  0  0  0  0
   10.1297   -1.6575   23.2324 C   0  0  0  0  0  0  0  0  0  0  0  0
    9.4684   -1.6929   26.7263 F   0  0  0  0  0  0  0  0  0  0  0  0
    7.7963   -7.7906   17.9837 C   0  0  0  0  0  0  0  0  0  0  0  0
   10.5884   -3.0725   16.7902 O   0  0  0  0  0  0  0  0  0  0  0  0
   10.4323   -5.3494   20.3516 C   0  0  0  0  0  0  0  0  0  0  0  0
    7.1156   -7.5454   16.8218 C   0  0  0  0  0  0  0  0  0  0  0  0
   10.3885   -4.4388   19.2773 C   0  0  0  0  0  0  0  0  0  0  0  0
    4.5160   -9.3822   15.0841 C   0  0  0  0  0  0  0  0  0  0  0  0
  1  3  4  0
  1 24  4  0
  2  6  4  0
  2 15  4  0
  3  5  4  0
  3  6  4  0
  4 21  4  0
  4 29  4  0
  5 15  4  0
  5 28  1  0
  6 16  4  0
  7 18  4  0
  7 26  4  0
  8 18  1  0
  8 19  4  0
  8 22  4  0
  9 12  4  0
  9 19  4  0
 10 12  4  0
 10 22  4  0
 11 20  4  0
 11 21  4  0
 12 23  1  0
 13 20  4  0
 13 29  4  0
 14 17  4  0
 14 28  4  0
 15 25  2  0
 16 27  4  0
 17 18  4  0
 20 27  1  0
 24 27  4  0
 26 28  4  0
M  END
$$$$

 Created by Python create_sdf_string function

 29 33  0  0  0  0  0  0  0  0999 V2000
    8.8270   -7.0288   18.4251 C   0  0  0  0  0  0  0  0  0  0  0  0
    9.1576   -4.6236   15.8860 O   0  0  0  0  0  0  0  0  0  0  0  0
    9.1509   -5.9108   17.7177 C   0  0  0  0  0  0  0  0  0  0  0  0
    3.6373   -9.5349   16.0582 N   0  0  0  0  0  0  0  0  0  0  0  0
    9.9275   -4.8001   18.0438 N   0  0  0  0  0  0  0  0  0  0  0  0
    8.5908   -5.7425   16.4412 C   0  0  0  0  0  0  0  0  0  0  0  0
   10.5993   -4.8981   21.6068 C   0  0  0  0  0  0  0  0  0  0  0  0
   10.4258   -3.0106   23.0998 C   0  0  0  0  0  0  0  0  0  0  0  0
   10.2148   -3.4364   25.4200 C   0  0  0  0  0  0  0  0  0  0  0  0
    9.7853   -1.1840   24.4927 C   0  0  0  0  0  0  0  0  0  0  0  0
    5.0276   -8.5227   17.5352 C   0  0  0  0  0  0  0  0  0  0  0  0
    9.8187   -2.0895   25.5800 C   0  0  0  0  0  0  0  0  0  0  0  0
    5.6473   -8.7216   15.3158 C   0  0  0  0  0  0  0  0  0  0  0  0
   10.7581   -3.1233   19.4720 N   0  0  0  0  0  0  0  0  0  0  0  0
    9.9571   -4.0573   16.8866 C   0  0  0  0  0  0  0  0  0  0  0  0
    7.6213   -6.5618   16.0087 C   0  0  0  0  0  0  0  0  0  0  0  0
   10.8583   -2.6527   20.7222 C   0  0  0  0  0  0  0  0  0  0  0  0
   10.6412   -3.5089   21.7936 C   0  0  0  0  0  0  0  0  0  0  0  0
   10.4972   -3.8968   24.1589 C   0  0  0  0  0  0  0  0  0  0  0  0
    5.9260   -8.2736   16.5517 C   0  0  0  0  0  0  0  0  0  0  0  0
    3.8816   -9.1166   17.2493 C   0  0  0  0  0  0  0  0  0  0  0  0
   10.1297   -1.6575   23.2324 C   0  0  0  0  0  0  0  0  0  0  0  0
    9.4684   -1.6929   26.7263 F   0  0  0  0  0  0  0  0  0  0  0  0
    7.7963   -7.7906   17.9837 C   0  0  0  0  0  0  0  0  0  0  0  0
   10.5884   -3.0725   16.7902 O   0  0  0  0  0  0  0  0  0  0  0  0
   10.4323   -5.3494   20.3516 C   0  0  0  0  0  0  0  0  0  0  0  0
    7.1156   -7.5454   16.8218 C   0  0  0  0  0  0  0  0  0  0  0  0
   10.3885   -4.4388   19.2773 C   0  0  0  0  0  0  0  0  0  0  0  0
    4.5160   -9.3822   15.0841 C   0  0  0  0  0  0  0  0  0  0  0  0
  1  3  4  0
  1 24  4  0
  2  6  4  0
  2 15  4  0
  3  5  4  0
  3  6  4  0
  4 21  4  0
  4 29  4  0
  5 15  4  0
  5 28  1  0
  6 16  4  0
  7 18  4  0
  7 26  4  0
  8 18  1  0
  8 19  4  0
  8 22  4  0
  9 12  4  0
  9 19  4  0
 10 12  4  0
 10 22  4  0
 11 20  4  0
 11 21  4  0
 12 23  1  0
 13 20  4  0
 13 29  4  0
 14 17  4  0
 14 28  4  0
 15 25  2  0
 16 27  4  0
 17 18  4  0
 20 27  1  0
 24 27  4  0
 26 28  4  0
M  END
$$$$

 Created by Python create_sdf_string function

 29 33  0  0  0  0  0  0  0  0999 V2000
    8.8270   -7.0288   18.4251 C   0  0  0  0  0  0  0  0  0  0  0  0
    9.1576   -4.6236   15.8860 O   0  0  0  0  0  0  0  0  0  0  0  0
    9.1509   -5.9108   17.7177 C   0  0  0  0  0  0  0  0  0  0  0  0
    3.6373   -9.5349   16.0582 N   0  0  0  0  0  0  0  0  0  0  0  0
    9.9275   -4.8001   18.0438 N   0  0  0  0  0  0  0  0  0  0  0  0
    8.5908   -5.7425   16.4412 C   0  0  0  0  0  0  0  0  0  0  0  0
   10.5993   -4.8981   21.6068 C   0  0  0  0  0  0  0  0  0  0  0  0
   10.4258   -3.0106   23.0998 C   0  0  0  0  0  0  0  0  0  0  0  0
   10.2148   -3.4364   25.4200 C   0  0  0  0  0  0  0  0  0  0  0  0
    9.7853   -1.1840   24.4927 C   0  0  0  0  0  0  0  0  0  0  0  0
    5.0276   -8.5227   17.5352 C   0  0  0  0  0  0  0  0  0  0  0  0
    9.8187   -2.0895   25.5800 C   0  0  0  0  0  0  0  0  0  0  0  0
    5.6473   -8.7216   15.3158 C   0  0  0  0  0  0  0  0  0  0  0  0
   10.7581   -3.1233   19.4720 N   0  0  0  0  0  0  0  0  0  0  0  0
    9.9571   -4.0573   16.8866 C   0  0  0  0  0  0  0  0  0  0  0  0
    7.6213   -6.5618   16.0087 C   0  0  0  0  0  0  0  0  0  0  0  0
   10.8583   -2.6527   20.7222 C   0  0  0  0  0  0  0  0  0  0  0  0
   10.6412   -3.5089   21.7936 C   0  0  0  0  0  0  0  0  0  0  0  0
   10.4972   -3.8968   24.1589 C   0  0  0  0  0  0  0  0  0  0  0  0
    5.9260   -8.2736   16.5517 C   0  0  0  0  0  0  0  0  0  0  0  0
    3.8816   -9.1166   17.2493 C   0  0  0  0  0  0  0  0  0  0  0  0
   10.1297   -1.6575   23.2324 C   0  0  0  0  0  0  0  0  0  0  0  0
    9.4684   -1.6929   26.7263 F   0  0  0  0  0  0  0  0  0  0  0  0
    7.7963   -7.7906   17.9837 C   0  0  0  0  0  0  0  0  0  0  0  0
   10.5884   -3.0725   16.7902 O   0  0  0  0  0  0  0  0  0  0  0  0
   10.4323   -5.3494   20.3516 C   0  0  0  0  0  0  0  0  0  0  0  0
    7.1156   -7.5454   16.8218 C   0  0  0  0  0  0  0  0  0  0  0  0
   10.3885   -4.4388   19.2773 C   0  0  0  0  0  0  0  0  0  0  0  0
    4.5160   -9.3822   15.0841 C   0  0  0  0  0  0  0  0  0  0  0  0
  1  3  4  0
  1 24  4  0
  2  6  4  0
  2 15  4  0
  3  5  4  0
  3  6  4  0
  4 21  4  0
  4 29  4  0
  5 15  4  0
  5 28  1  0
  6 16  4  0
  7 18  4  0
  7 26  4  0
  8 18  1  0
  8 19  4  0
  8 22  4  0
  9 12  4  0
  9 19  4  0
 10 12  4  0
 10 22  4  0
 11 20  4  0
 11 21  4  0
 12 23  1  0
 13 20  4  0
 13 29  4  0
 14 17  4  0
 14 28  4  0
 15 25  2  0
 16 27  4  0
 17 18  4  0
 20 27  1  0
 24 27  4  0
 26 28  4  0
M  END
$$$$

 Created by Python create_sdf_string function

 29 33  0  0  0  0  0  0  0  0999 V2000
    8.8270   -7.0288   18.4251 C   0  0  0  0  0  0  0  0  0  0  0  0
    9.1576   -4.6236   15.8860 O   0  0  0  0  0  0  0  0  0  0  0  0
    9.1509   -5.9108   17.7177 C   0  0  0  0  0  0  0  0  0  0  0  0
    3.6373   -9.5349   16.0582 N   0  0  0  0  0  0  0  0  0  0  0  0
    9.9275   -4.8001   18.0438 N   0  0  0  0  0  0  0  0  0  0  0  0
    8.5908   -5.7425   16.4412 C   0  0  0  0  0  0  0  0  0  0  0  0
   10.5993   -4.8981   21.6068 C   0  0  0  0  0  0  0  0  0  0  0  0
   10.4258   -3.0106   23.0998 C   0  0  0  0  0  0  0  0  0  0  0  0
   10.2148   -3.4364   25.4200 C   0  0  0  0  0  0  0  0  0  0  0  0
    9.7853   -1.1840   24.4927 C   0  0  0  0  0  0  0  0  0  0  0  0
    5.0276   -8.5227   17.5352 C   0  0  0  0  0  0  0  0  0  0  0  0
    9.8187   -2.0895   25.5800 C   0  0  0  0  0  0  0  0  0  0  0  0
    5.6473   -8.7216   15.3158 C   0  0  0  0  0  0  0  0  0  0  0  0
   10.7581   -3.1233   19.4720 N   0  0  0  0  0  0  0  0  0  0  0  0
    9.9571   -4.0573   16.8866 C   0  0  0  0  0  0  0  0  0  0  0  0
    7.6213   -6.5618   16.0087 C   0  0  0  0  0  0  0  0  0  0  0  0
   10.8583   -2.6527   20.7222 C   0  0  0  0  0  0  0  0  0  0  0  0
   10.6412   -3.5089   21.7936 C   0  0  0  0  0  0  0  0  0  0  0  0
   10.4972   -3.8968   24.1589 C   0  0  0  0  0  0  0  0  0  0  0  0
    5.9260   -8.2736   16.5517 C   0  0  0  0  0  0  0  0  0  0  0  0
    3.8816   -9.1166   17.2493 C   0  0  0  0  0  0  0  0  0  0  0  0
   10.1297   -1.6575   23.2324 C   0  0  0  0  0  0  0  0  0  0  0  0
    9.4684   -1.6929   26.7263 F   0  0  0  0  0  0  0  0  0  0  0  0
    7.7963   -7.7906   17.9837 C   0  0  0  0  0  0  0  0  0  0  0  0
   10.5884   -3.0725   16.7902 O   0  0  0  0  0  0  0  0  0  0  0  0
   10.4323   -5.3494   20.3516 C   0  0  0  0  0  0  0  0  0  0  0  0
    7.1156   -7.5454   16.8218 C   0  0  0  0  0  0  0  0  0  0  0  0
   10.3885   -4.4388   19.2773 C   0  0  0  0  0  0  0  0  0  0  0  0
    4.5160   -9.3822   15.0841 C   0  0  0  0  0  0  0  0  0  0  0  0
  1  3  4  0
  1 24  4  0
  2  6  4  0
  2 15  4  0
  3  5  4  0
  3  6  4  0
  4 21  4  0
  4 29  4  0
  5 15  4  0
  5 28  1  0
  6 16  4  0
  7 18  4  0
  7 26  4  0
  8 18  1  0
  8 19  4  0
  8 22  4  0
  9 12  4  0
  9 19  4  0
 10 12  4  0
 10 22  4  0
 11 20  4  0
 11 21  4  0
 12 23  1  0
 13 20  4  0
 13 29  4  0
 14 17  4  0
 14 28  4  0
 15 25  2  0
 16 27  4  0
 17 18  4  0
 20 27  1  0
 24 27  4  0
 26 28  4  0
M  END
$$$$

 Created by Python create_sdf_string function

 29 33  0  0  0  0  0  0  0  0999 V2000
    8.8270   -7.0288   18.4251 C   0  0  0  0  0  0  0  0  0  0  0  0
    9.1576   -4.6236   15.8860 O   0  0  0  0  0  0  0  0  0  0  0  0
    9.1509   -5.9108   17.7177 C   0  0  0  0  0  0  0  0  0  0  0  0
    3.6373   -9.5349   16.0582 N   0  0  0  0  0  0  0  0  0  0  0  0
    9.9275   -4.8001   18.0438 N   0  0  0  0  0  0  0  0  0  0  0  0
    8.5908   -5.7425   16.4412 C   0  0  0  0  0  0  0  0  0  0  0  0
   10.5993   -4.8981   21.6068 C   0  0  0  0  0  0  0  0  0  0  0  0
   10.4258   -3.0106   23.0998 C   0  0  0  0  0  0  0  0  0  0  0  0
   10.2148   -3.4364   25.4200 C   0  0  0  0  0  0  0  0  0  0  0  0
    9.7853   -1.1840   24.4927 C   0  0  0  0  0  0  0  0  0  0  0  0
    5.0276   -8.5227   17.5352 C   0  0  0  0  0  0  0  0  0  0  0  0
    9.8187   -2.0895   25.5800 C   0  0  0  0  0  0  0  0  0  0  0  0
    5.6473   -8.7216   15.3158 C   0  0  0  0  0  0  0  0  0  0  0  0
   10.7581   -3.1233   19.4720 N   0  0  0  0  0  0  0  0  0  0  0  0
    9.9571   -4.0573   16.8866 C   0  0  0  0  0  0  0  0  0  0  0  0
    7.6213   -6.5618   16.0087 C   0  0  0  0  0  0  0  0  0  0  0  0
   10.8583   -2.6527   20.7222 C   0  0  0  0  0  0  0  0  0  0  0  0
   10.6412   -3.5089   21.7936 C   0  0  0  0  0  0  0  0  0  0  0  0
   10.4972   -3.8968   24.1589 C   0  0  0  0  0  0  0  0  0  0  0  0
    5.9260   -8.2736   16.5517 C   0  0  0  0  0  0  0  0  0  0  0  0
    3.8816   -9.1166   17.2493 C   0  0  0  0  0  0  0  0  0  0  0  0
   10.1297   -1.6575   23.2324 C   0  0  0  0  0  0  0  0  0  0  0  0
    9.4684   -1.6929   26.7263 F   0  0  0  0  0  0  0  0  0  0  0  0
    7.7963   -7.7906   17.9837 C   0  0  0  0  0  0  0  0  0  0  0  0
   10.5884   -3.0725   16.7902 O   0  0  0  0  0  0  0  0  0  0  0  0
   10.4323   -5.3494   20.3516 C   0  0  0  0  0  0  0  0  0  0  0  0
    7.1156   -7.5454   16.8218 C   0  0  0  0  0  0  0  0  0  0  0  0
   10.3885   -4.4388   19.2773 C   0  0  0  0  0  0  0  0  0  0  0  0
    4.5160   -9.3822   15.0841 C   0  0  0  0  0  0  0  0  0  0  0  0
  1  3  4  0
  1 24  4  0
  2  6  4  0
  2 15  4  0
  3  5  4  0
  3  6  4  0
  4 21  4  0
  4 29  4  0
  5 15  4  0
  5 28  1  0
  6 16  4  0
  7 18  4  0
  7 26  4  0
  8 18  1  0
  8 19  4  0
  8 22  4  0
  9 12  4  0
  9 19  4  0
 10 12  4  0
 10 22  4  0
 11 20  4  0
 11 21  4  0
 12 23  1  0
 13 20  4  0
 13 29  4  0
 14 17  4  0
 14 28  4  0
 15 25  2  0
 16 27  4  0
 17 18  4  0
 20 27  1  0
 24 27  4  0
 26 28  4  0
M  END
$$$$

 Created by Python create_sdf_string function

 29 33  0  0  0  0  0  0  0  0999 V2000
    8.8270   -7.0288   18.4251 C   0  0  0  0  0  0  0  0  0  0  0  0
    9.1576   -4.6236   15.8860 O   0  0  0  0  0  0  0  0  0  0  0  0
    9.1509   -5.9108   17.7177 C   0  0  0  0  0  0  0  0  0  0  0  0
    3.6373   -9.5349   16.0582 N   0  0  0  0  0  0  0  0  0  0  0  0
    9.9275   -4.8001   18.0438 N   0  0  0  0  0  0  0  0  0  0  0  0
    8.5908   -5.7425   16.4412 C   0  0  0  0  0  0  0  0  0  0  0  0
   10.5993   -4.8981   21.6068 C   0  0  0  0  0  0  0  0  0  0  0  0
   10.4258   -3.0106   23.0998 C   0  0  0  0  0  0  0  0  0  0  0  0
   10.2148   -3.4364   25.4200 C   0  0  0  0  0  0  0  0  0  0  0  0
    9.7853   -1.1840   24.4927 C   0  0  0  0  0  0  0  0  0  0  0  0
    5.0276   -8.5227   17.5352 C   0  0  0  0  0  0  0  0  0  0  0  0
    9.8187   -2.0895   25.5800 C   0  0  0  0  0  0  0  0  0  0  0  0
    5.6473   -8.7216   15.3158 C   0  0  0  0  0  0  0  0  0  0  0  0
   10.7581   -3.1233   19.4720 N   0  0  0  0  0  0  0  0  0  0  0  0
    9.9571   -4.0573   16.8866 C   0  0  0  0  0  0  0  0  0  0  0  0
    7.6213   -6.5618   16.0087 C   0  0  0  0  0  0  0  0  0  0  0  0
   10.8583   -2.6527   20.7222 C   0  0  0  0  0  0  0  0  0  0  0  0
   10.6412   -3.5089   21.7936 C   0  0  0  0  0  0  0  0  0  0  0  0
   10.4972   -3.8968   24.1589 C   0  0  0  0  0  0  0  0  0  0  0  0
    5.9260   -8.2736   16.5517 C   0  0  0  0  0  0  0  0  0  0  0  0
    3.8816   -9.1166   17.2493 C   0  0  0  0  0  0  0  0  0  0  0  0
   10.1297   -1.6575   23.2324 C   0  0  0  0  0  0  0  0  0  0  0  0
    9.4684   -1.6929   26.7263 F   0  0  0  0  0  0  0  0  0  0  0  0
    7.7963   -7.7906   17.9837 C   0  0  0  0  0  0  0  0  0  0  0  0
   10.5884   -3.0725   16.7902 O   0  0  0  0  0  0  0  0  0  0  0  0
   10.4323   -5.3494   20.3516 C   0  0  0  0  0  0  0  0  0  0  0  0
    7.1156   -7.5454   16.8218 C   0  0  0  0  0  0  0  0  0  0  0  0
   10.3885   -4.4388   19.2773 C   0  0  0  0  0  0  0  0  0  0  0  0
    4.5160   -9.3822   15.0841 C   0  0  0  0  0  0  0  0  0  0  0  0
  1  3  4  0
  1 24  4  0
  2  6  4  0
  2 15  4  0
  3  5  4  0
  3  6  4  0
  4 21  4  0
  4 29  4  0
  5 15  4  0
  5 28  1  0
  6 16  4  0
  7 18  4  0
  7 26  4  0
  8 18  1  0
  8 19  4  0
  8 22  4  0
  9 12  4  0
  9 19  4  0
 10 12  4  0
 10 22  4  0
 11 20  4  0
 11 21  4  0
 12 23  1  0
 13 20  4  0
 13 29  4  0
 14 17  4  0
 14 28  4  0
 15 25  2  0
 16 27  4  0
 17 18  4  0
 20 27  1  0
 24 27  4  0
 26 28  4  0
M  END
$$$$

 Created by Python create_sdf_string function

 29 33  0  0  0  0  0  0  0  0999 V2000
    8.8270   -7.0288   18.4251 C   0  0  0  0  0  0  0  0  0  0  0  0
    9.1576   -4.6236   15.8860 O   0  0  0  0  0  0  0  0  0  0  0  0
    9.1509   -5.9108   17.7177 C   0  0  0  0  0  0  0  0  0  0  0  0
    3.6373   -9.5349   16.0582 N   0  0  0  0  0  0  0  0  0  0  0  0
    9.9275   -4.8001   18.0438 N   0  0  0  0  0  0  0  0  0  0  0  0
    8.5908   -5.7425   16.4412 C   0  0  0  0  0  0  0  0  0  0  0  0
   10.5993   -4.8981   21.6068 C   0  0  0  0  0  0  0  0  0  0  0  0
   10.4258   -3.0106   23.0998 C   0  0  0  0  0  0  0  0  0  0  0  0
   10.2148   -3.4364   25.4200 C   0  0  0  0  0  0  0  0  0  0  0  0
    9.7853   -1.1840   24.4927 C   0  0  0  0  0  0  0  0  0  0  0  0
    5.0276   -8.5227   17.5352 C   0  0  0  0  0  0  0  0  0  0  0  0
    9.8187   -2.0895   25.5800 C   0  0  0  0  0  0  0  0  0  0  0  0
    5.6473   -8.7216   15.3158 C   0  0  0  0  0  0  0  0  0  0  0  0
   10.7581   -3.1233   19.4720 N   0  0  0  0  0  0  0  0  0  0  0  0
    9.9571   -4.0573   16.8866 C   0  0  0  0  0  0  0  0  0  0  0  0
    7.6213   -6.5618   16.0087 C   0  0  0  0  0  0  0  0  0  0  0  0
   10.8583   -2.6527   20.7222 C   0  0  0  0  0  0  0  0  0  0  0  0
   10.6412   -3.5089   21.7936 C   0  0  0  0  0  0  0  0  0  0  0  0
   10.4972   -3.8968   24.1589 C   0  0  0  0  0  0  0  0  0  0  0  0
    5.9260   -8.2736   16.5517 C   0  0  0  0  0  0  0  0  0  0  0  0
    3.8816   -9.1166   17.2493 C   0  0  0  0  0  0  0  0  0  0  0  0
   10.1297   -1.6575   23.2324 C   0  0  0  0  0  0  0  0  0  0  0  0
    9.4684   -1.6929   26.7263 F   0  0  0  0  0  0  0  0  0  0  0  0
    7.7963   -7.7906   17.9837 C   0  0  0  0  0  0  0  0  0  0  0  0
   10.5884   -3.0725   16.7902 O   0  0  0  0  0  0  0  0  0  0  0  0
   10.4323   -5.3494   20.3516 C   0  0  0  0  0  0  0  0  0  0  0  0
    7.1156   -7.5454   16.8218 C   0  0  0  0  0  0  0  0  0  0  0  0
   10.3885   -4.4388   19.2773 C   0  0  0  0  0  0  0  0  0  0  0  0
    4.5160   -9.3822   15.0841 C   0  0  0  0  0  0  0  0  0  0  0  0
  1  3  4  0
  1 24  4  0
  2  6  4  0
  2 15  4  0
  3  5  4  0
  3  6  4  0
  4 21  4  0
  4 29  4  0
  5 15  4  0
  5 28  1  0
  6 16  4  0
  7 18  4  0
  7 26  4  0
  8 18  1  0
  8 19  4  0
  8 22  4  0
  9 12  4  0
  9 19  4  0
 10 12  4  0
 10 22  4  0
 11 20  4  0
 11 21  4  0
 12 23  1  0
 13 20  4  0
 13 29  4  0
 14 17  4  0
 14 28  4  0
 15 25  2  0
 16 27  4  0
 17 18  4  0
 20 27  1  0
 24 27  4  0
 26 28  4  0
M  END
$$$$

 Created by Python create_sdf_string function

 29 33  0  0  0  0  0  0  0  0999 V2000
    8.8270   -7.0288   18.4251 C   0  0  0  0  0  0  0  0  0  0  0  0
    9.1576   -4.6236   15.8860 O   0  0  0  0  0  0  0  0  0  0  0  0
    9.1509   -5.9108   17.7177 C   0  0  0  0  0  0  0  0  0  0  0  0
    3.6373   -9.5349   16.0582 N   0  0  0  0  0  0  0  0  0  0  0  0
    9.9275   -4.8001   18.0438 N   0  0  0  0  0  0  0  0  0  0  0  0
    8.5908   -5.7425   16.4412 C   0  0  0  0  0  0  0  0  0  0  0  0
   10.5993   -4.8981   21.6068 C   0  0  0  0  0  0  0  0  0  0  0  0
   10.4258   -3.0106   23.0998 C   0  0  0  0  0  0  0  0  0  0  0  0
   10.2148   -3.4364   25.4200 C   0  0  0  0  0  0  0  0  0  0  0  0
    9.7853   -1.1840   24.4927 C   0  0  0  0  0  0  0  0  0  0  0  0
    5.0276   -8.5227   17.5352 C   0  0  0  0  0  0  0  0  0  0  0  0
    9.8187   -2.0895   25.5800 C   0  0  0  0  0  0  0  0  0  0  0  0
    5.6473   -8.7216   15.3158 C   0  0  0  0  0  0  0  0  0  0  0  0
   10.7581   -3.1233   19.4720 N   0  0  0  0  0  0  0  0  0  0  0  0
    9.9571   -4.0573   16.8866 C   0  0  0  0  0  0  0  0  0  0  0  0
    7.6213   -6.5618   16.0087 C   0  0  0  0  0  0  0  0  0  0  0  0
   10.8583   -2.6527   20.7222 C   0  0  0  0  0  0  0  0  0  0  0  0
   10.6412   -3.5089   21.7936 C   0  0  0  0  0  0  0  0  0  0  0  0
   10.4972   -3.8968   24.1589 C   0  0  0  0  0  0  0  0  0  0  0  0
    5.9260   -8.2736   16.5517 C   0  0  0  0  0  0  0  0  0  0  0  0
    3.8816   -9.1166   17.2493 C   0  0  0  0  0  0  0  0  0  0  0  0
   10.1297   -1.6575   23.2324 C   0  0  0  0  0  0  0  0  0  0  0  0
    9.4684   -1.6929   26.7263 F   0  0  0  0  0  0  0  0  0  0  0  0
    7.7963   -7.7906   17.9837 C   0  0  0  0  0  0  0  0  0  0  0  0
   10.5884   -3.0725   16.7902 O   0  0  0  0  0  0  0  0  0  0  0  0
   10.4323   -5.3494   20.3516 C   0  0  0  0  0  0  0  0  0  0  0  0
    7.1156   -7.5454   16.8218 C   0  0  0  0  0  0  0  0  0  0  0  0
   10.3885   -4.4388   19.2773 C   0  0  0  0  0  0  0  0  0  0  0  0
    4.5160   -9.3822   15.0841 C   0  0  0  0  0  0  0  0  0  0  0  0
  1  3  4  0
  1 24  4  0
  2  6  4  0
  2 15  4  0
  3  5  4  0
  3  6  4  0
  4 21  4  0
  4 29  4  0
  5 15  4  0
  5 28  1  0
  6 16  4  0
  7 18  4  0
  7 26  4  0
  8 18  1  0
  8 19  4  0
  8 22  4  0
  9 12  4  0
  9 19  4  0
 10 12  4  0
 10 22  4  0
 11 20  4  0
 11 21  4  0
 12 23  1  0
 13 20  4  0
 13 29  4  0
 14 17  4  0
 14 28  4  0
 15 25  2  0
 16 27  4  0
 17 18  4  0
 20 27  1  0
 24 27  4  0
 26 28  4  0
M  END
$$$$

 Created by Python create_sdf_string function

 29 33  0  0  0  0  0  0  0  0999 V2000
    8.8270   -7.0288   18.4251 C   0  0  0  0  0  0  0  0  0  0  0  0
    9.1576   -4.6236   15.8860 O   0  0  0  0  0  0  0  0  0  0  0  0
    9.1509   -5.9108   17.7177 C   0  0  0  0  0  0  0  0  0  0  0  0
    3.6373   -9.5349   16.0582 N   0  0  0  0  0  0  0  0  0  0  0  0
    9.9275   -4.8001   18.0438 N   0  0  0  0  0  0  0  0  0  0  0  0
    8.5908   -5.7425   16.4412 C   0  0  0  0  0  0  0  0  0  0  0  0
   10.5993   -4.8981   21.6068 C   0  0  0  0  0  0  0  0  0  0  0  0
   10.4258   -3.0106   23.0998 C   0  0  0  0  0  0  0  0  0  0  0  0
   10.2148   -3.4364   25.4200 C   0  0  0  0  0  0  0  0  0  0  0  0
    9.7853   -1.1840   24.4927 C   0  0  0  0  0  0  0  0  0  0  0  0
    5.0276   -8.5227   17.5352 C   0  0  0  0  0  0  0  0  0  0  0  0
    9.8187   -2.0895   25.5800 C   0  0  0  0  0  0  0  0  0  0  0  0
    5.6473   -8.7216   15.3158 C   0  0  0  0  0  0  0  0  0  0  0  0
   10.7581   -3.1233   19.4720 N   0  0  0  0  0  0  0  0  0  0  0  0
    9.9571   -4.0573   16.8866 C   0  0  0  0  0  0  0  0  0  0  0  0
    7.6213   -6.5618   16.0087 C   0  0  0  0  0  0  0  0  0  0  0  0
   10.8583   -2.6527   20.7222 C   0  0  0  0  0  0  0  0  0  0  0  0
   10.6412   -3.5089   21.7936 C   0  0  0  0  0  0  0  0  0  0  0  0
   10.4972   -3.8968   24.1589 C   0  0  0  0  0  0  0  0  0  0  0  0
    5.9260   -8.2736   16.5517 C   0  0  0  0  0  0  0  0  0  0  0  0
    3.8816   -9.1166   17.2493 C   0  0  0  0  0  0  0  0  0  0  0  0
   10.1297   -1.6575   23.2324 C   0  0  0  0  0  0  0  0  0  0  0  0
    9.4684   -1.6929   26.7263 F   0  0  0  0  0  0  0  0  0  0  0  0
    7.7963   -7.7906   17.9837 C   0  0  0  0  0  0  0  0  0  0  0  0
   10.5884   -3.0725   16.7902 O   0  0  0  0  0  0  0  0  0  0  0  0
   10.4323   -5.3494   20.3516 C   0  0  0  0  0  0  0  0  0  0  0  0
    7.1156   -7.5454   16.8218 C   0  0  0  0  0  0  0  0  0  0  0  0
   10.3885   -4.4388   19.2773 C   0  0  0  0  0  0  0  0  0  0  0  0
    4.5160   -9.3822   15.0841 C   0  0  0  0  0  0  0  0  0  0  0  0
  1  3  4  0
  1 24  4  0
  2  6  4  0
  2 15  4  0
  3  5  4  0
  3  6  4  0
  4 21  4  0
  4 29  4  0
  5 15  4  0
  5 28  1  0
  6 16  4  0
  7 18  4  0
  7 26  4  0
  8 18  1  0
  8 19  4  0
  8 22  4  0
  9 12  4  0
  9 19  4  0
 10 12  4  0
 10 22  4  0
 11 20  4  0
 11 21  4  0
 12 23  1  0
 13 20  4  0
 13 29  4  0
 14 17  4  0
 14 28  4  0
 15 25  2  0
 16 27  4  0
 17 18  4  0
 20 27  1  0
 24 27  4  0
 26 28  4  0
M  END
$$$$

 Created by Python create_sdf_string function

 29 33  0  0  0  0  0  0  0  0999 V2000
    8.8270   -7.0288   18.4251 C   0  0  0  0  0  0  0  0  0  0  0  0
    9.1576   -4.6236   15.8860 O   0  0  0  0  0  0  0  0  0  0  0  0
    9.1509   -5.9108   17.7177 C   0  0  0  0  0  0  0  0  0  0  0  0
    3.6373   -9.5349   16.0582 N   0  0  0  0  0  0  0  0  0  0  0  0
    9.9275   -4.8001   18.0438 N   0  0  0  0  0  0  0  0  0  0  0  0
    8.5908   -5.7425   16.4412 C   0  0  0  0  0  0  0  0  0  0  0  0
   10.5993   -4.8981   21.6068 C   0  0  0  0  0  0  0  0  0  0  0  0
   10.4258   -3.0106   23.0998 C   0  0  0  0  0  0  0  0  0  0  0  0
   10.2148   -3.4364   25.4200 C   0  0  0  0  0  0  0  0  0  0  0  0
    9.7853   -1.1840   24.4927 C   0  0  0  0  0  0  0  0  0  0  0  0
    5.0276   -8.5227   17.5352 C   0  0  0  0  0  0  0  0  0  0  0  0
    9.8187   -2.0895   25.5800 C   0  0  0  0  0  0  0  0  0  0  0  0
    5.6473   -8.7216   15.3158 C   0  0  0  0  0  0  0  0  0  0  0  0
   10.7581   -3.1233   19.4720 N   0  0  0  0  0  0  0  0  0  0  0  0
    9.9571   -4.0573   16.8866 C   0  0  0  0  0  0  0  0  0  0  0  0
    7.6213   -6.5618   16.0087 C   0  0  0  0  0  0  0  0  0  0  0  0
   10.8583   -2.6527   20.7222 C   0  0  0  0  0  0  0  0  0  0  0  0
   10.6412   -3.5089   21.7936 C   0  0  0  0  0  0  0  0  0  0  0  0
   10.4972   -3.8968   24.1589 C   0  0  0  0  0  0  0  0  0  0  0  0
    5.9260   -8.2736   16.5517 C   0  0  0  0  0  0  0  0  0  0  0  0
    3.8816   -9.1166   17.2493 C   0  0  0  0  0  0  0  0  0  0  0  0
   10.1297   -1.6575   23.2324 C   0  0  0  0  0  0  0  0  0  0  0  0
    9.4684   -1.6929   26.7263 F   0  0  0  0  0  0  0  0  0  0  0  0
    7.7963   -7.7906   17.9837 C   0  0  0  0  0  0  0  0  0  0  0  0
   10.5884   -3.0725   16.7902 O   0  0  0  0  0  0  0  0  0  0  0  0
   10.4323   -5.3494   20.3516 C   0  0  0  0  0  0  0  0  0  0  0  0
    7.1156   -7.5454   16.8218 C   0  0  0  0  0  0  0  0  0  0  0  0
   10.3885   -4.4388   19.2773 C   0  0  0  0  0  0  0  0  0  0  0  0
    4.5160   -9.3822   15.0841 C   0  0  0  0  0  0  0  0  0  0  0  0
  1  3  4  0
  1 24  4  0
  2  6  4  0
  2 15  4  0
  3  5  4  0
  3  6  4  0
  4 21  4  0
  4 29  4  0
  5 15  4  0
  5 28  1  0
  6 16  4  0
  7 18  4  0
  7 26  4  0
  8 18  1  0
  8 19  4  0
  8 22  4  0
  9 12  4  0
  9 19  4  0
 10 12  4  0
 10 22  4  0
 11 20  4  0
 11 21  4  0
 12 23  1  0
 13 20  4  0
 13 29  4  0
 14 17  4  0
 14 28  4  0
 15 25  2  0
 16 27  4  0
 17 18  4  0
 20 27  1  0
 24 27  4  0
 26 28  4  0
M  END
$$$$

 Created by Python create_sdf_string function

 29 33  0  0  0  0  0  0  0  0999 V2000
    8.8270   -7.0288   18.4251 C   0  0  0  0  0  0  0  0  0  0  0  0
    9.1576   -4.6236   15.8860 O   0  0  0  0  0  0  0  0  0  0  0  0
    9.1509   -5.9108   17.7177 C   0  0  0  0  0  0  0  0  0  0  0  0
    3.6373   -9.5349   16.0582 N   0  0  0  0  0  0  0  0  0  0  0  0
    9.9275   -4.8001   18.0438 N   0  0  0  0  0  0  0  0  0  0  0  0
    8.5908   -5.7425   16.4412 C   0  0  0  0  0  0  0  0  0  0  0  0
   10.5993   -4.8981   21.6068 C   0  0  0  0  0  0  0  0  0  0  0  0
   10.4258   -3.0106   23.0998 C   0  0  0  0  0  0  0  0  0  0  0  0
   10.2148   -3.4364   25.4200 C   0  0  0  0  0  0  0  0  0  0  0  0
    9.7853   -1.1840   24.4927 C   0  0  0  0  0  0  0  0  0  0  0  0
    5.0276   -8.5227   17.5352 C   0  0  0  0  0  0  0  0  0  0  0  0
    9.8187   -2.0895   25.5800 C   0  0  0  0  0  0  0  0  0  0  0  0
    5.6473   -8.7216   15.3158 C   0  0  0  0  0  0  0  0  0  0  0  0
   10.7581   -3.1233   19.4720 N   0  0  0  0  0  0  0  0  0  0  0  0
    9.9571   -4.0573   16.8866 C   0  0  0  0  0  0  0  0  0  0  0  0
    7.6213   -6.5618   16.0087 C   0  0  0  0  0  0  0  0  0  0  0  0
   10.8583   -2.6527   20.7222 C   0  0  0  0  0  0  0  0  0  0  0  0
   10.6412   -3.5089   21.7936 C   0  0  0  0  0  0  0  0  0  0  0  0
   10.4972   -3.8968   24.1589 C   0  0  0  0  0  0  0  0  0  0  0  0
    5.9260   -8.2736   16.5517 C   0  0  0  0  0  0  0  0  0  0  0  0
    3.8816   -9.1166   17.2493 C   0  0  0  0  0  0  0  0  0  0  0  0
   10.1297   -1.6575   23.2324 C   0  0  0  0  0  0  0  0  0  0  0  0
    9.4684   -1.6929   26.7263 F   0  0  0  0  0  0  0  0  0  0  0  0
    7.7963   -7.7906   17.9837 C   0  0  0  0  0  0  0  0  0  0  0  0
   10.5884   -3.0725   16.7902 O   0  0  0  0  0  0  0  0  0  0  0  0
   10.4323   -5.3494   20.3516 C   0  0  0  0  0  0  0  0  0  0  0  0
    7.1156   -7.5454   16.8218 C   0  0  0  0  0  0  0  0  0  0  0  0
   10.3885   -4.4388   19.2773 C   0  0  0  0  0  0  0  0  0  0  0  0
    4.5160   -9.3822   15.0841 C   0  0  0  0  0  0  0  0  0  0  0  0
  1  3  4  0
  1 24  4  0
  2  6  4  0
  2 15  4  0
  3  5  4  0
  3  6  4  0
  4 21  4  0
  4 29  4  0
  5 15  4  0
  5 28  1  0
  6 16  4  0
  7 18  4  0
  7 26  4  0
  8 18  1  0
  8 19  4  0
  8 22  4  0
  9 12  4  0
  9 19  4  0
 10 12  4  0
 10 22  4  0
 11 20  4  0
 11 21  4  0
 12 23  1  0
 13 20  4  0
 13 29  4  0
 14 17  4  0
 14 28  4  0
 15 25  2  0
 16 27  4  0
 17 18  4  0
 20 27  1  0
 24 27  4  0
 26 28  4  0
M  END
$$$$

 Created by Python create_sdf_string function

 29 33  0  0  0  0  0  0  0  0999 V2000
    8.8270   -7.0288   18.4251 C   0  0  0  0  0  0  0  0  0  0  0  0
    9.1576   -4.6236   15.8860 O   0  0  0  0  0  0  0  0  0  0  0  0
    9.1509   -5.9108   17.7177 C   0  0  0  0  0  0  0  0  0  0  0  0
    3.6373   -9.5349   16.0582 N   0  0  0  0  0  0  0  0  0  0  0  0
    9.9275   -4.8001   18.0438 N   0  0  0  0  0  0  0  0  0  0  0  0
    8.5908   -5.7425   16.4412 C   0  0  0  0  0  0  0  0  0  0  0  0
   10.5993   -4.8981   21.6068 C   0  0  0  0  0  0  0  0  0  0  0  0
   10.4258   -3.0106   23.0998 C   0  0  0  0  0  0  0  0  0  0  0  0
   10.2148   -3.4364   25.4200 C   0  0  0  0  0  0  0  0  0  0  0  0
    9.7853   -1.1840   24.4927 C   0  0  0  0  0  0  0  0  0  0  0  0
    5.0276   -8.5227   17.5352 C   0  0  0  0  0  0  0  0  0  0  0  0
    9.8187   -2.0895   25.5800 C   0  0  0  0  0  0  0  0  0  0  0  0
    5.6473   -8.7216   15.3158 C   0  0  0  0  0  0  0  0  0  0  0  0
   10.7581   -3.1233   19.4720 N   0  0  0  0  0  0  0  0  0  0  0  0
    9.9571   -4.0573   16.8866 C   0  0  0  0  0  0  0  0  0  0  0  0
    7.6213   -6.5618   16.0087 C   0  0  0  0  0  0  0  0  0  0  0  0
   10.8583   -2.6527   20.7222 C   0  0  0  0  0  0  0  0  0  0  0  0
   10.6412   -3.5089   21.7936 C   0  0  0  0  0  0  0  0  0  0  0  0
   10.4972   -3.8968   24.1589 C   0  0  0  0  0  0  0  0  0  0  0  0
    5.9260   -8.2736   16.5517 C   0  0  0  0  0  0  0  0  0  0  0  0
    3.8816   -9.1166   17.2493 C   0  0  0  0  0  0  0  0  0  0  0  0
   10.1297   -1.6575   23.2324 C   0  0  0  0  0  0  0  0  0  0  0  0
    9.4684   -1.6929   26.7263 F   0  0  0  0  0  0  0  0  0  0  0  0
    7.7963   -7.7906   17.9837 C   0  0  0  0  0  0  0  0  0  0  0  0
   10.5884   -3.0725   16.7902 O   0  0  0  0  0  0  0  0  0  0  0  0
   10.4323   -5.3494   20.3516 C   0  0  0  0  0  0  0  0  0  0  0  0
    7.1156   -7.5454   16.8218 C   0  0  0  0  0  0  0  0  0  0  0  0
   10.3885   -4.4388   19.2773 C   0  0  0  0  0  0  0  0  0  0  0  0
    4.5160   -9.3822   15.0841 C   0  0  0  0  0  0  0  0  0  0  0  0
  1  3  4  0
  1 24  4  0
  2  6  4  0
  2 15  4  0
  3  5  4  0
  3  6  4  0
  4 21  4  0
  4 29  4  0
  5 15  4  0
  5 28  1  0
  6 16  4  0
  7 18  4  0
  7 26  4  0
  8 18  1  0
  8 19  4  0
  8 22  4  0
  9 12  4  0
  9 19  4  0
 10 12  4  0
 10 22  4  0
 11 20  4  0
 11 21  4  0
 12 23  1  0
 13 20  4  0
 13 29  4  0
 14 17  4  0
 14 28  4  0
 15 25  2  0
 16 27  4  0
 17 18  4  0
 20 27  1  0
 24 27  4  0
 26 28  4  0
M  END
$$$$

 Created by Python create_sdf_string function

 29 33  0  0  0  0  0  0  0  0999 V2000
    8.8270   -7.0288   18.4251 C   0  0  0  0  0  0  0  0  0  0  0  0
    9.1576   -4.6236   15.8860 O   0  0  0  0  0  0  0  0  0  0  0  0
    9.1509   -5.9108   17.7177 C   0  0  0  0  0  0  0  0  0  0  0  0
    3.6373   -9.5349   16.0582 N   0  0  0  0  0  0  0  0  0  0  0  0
    9.9275   -4.8001   18.0438 N   0  0  0  0  0  0  0  0  0  0  0  0
    8.5908   -5.7425   16.4412 C   0  0  0  0  0  0  0  0  0  0  0  0
   10.5993   -4.8981   21.6068 C   0  0  0  0  0  0  0  0  0  0  0  0
   10.4258   -3.0106   23.0998 C   0  0  0  0  0  0  0  0  0  0  0  0
   10.2148   -3.4364   25.4200 C   0  0  0  0  0  0  0  0  0  0  0  0
    9.7853   -1.1840   24.4927 C   0  0  0  0  0  0  0  0  0  0  0  0
    5.0276   -8.5227   17.5352 C   0  0  0  0  0  0  0  0  0  0  0  0
    9.8187   -2.0895   25.5800 C   0  0  0  0  0  0  0  0  0  0  0  0
    5.6473   -8.7216   15.3158 C   0  0  0  0  0  0  0  0  0  0  0  0
   10.7581   -3.1233   19.4720 N   0  0  0  0  0  0  0  0  0  0  0  0
    9.9571   -4.0573   16.8866 C   0  0  0  0  0  0  0  0  0  0  0  0
    7.6213   -6.5618   16.0087 C   0  0  0  0  0  0  0  0  0  0  0  0
   10.8583   -2.6527   20.7222 C   0  0  0  0  0  0  0  0  0  0  0  0
   10.6412   -3.5089   21.7936 C   0  0  0  0  0  0  0  0  0  0  0  0
   10.4972   -3.8968   24.1589 C   0  0  0  0  0  0  0  0  0  0  0  0
    5.9260   -8.2736   16.5517 C   0  0  0  0  0  0  0  0  0  0  0  0
    3.8816   -9.1166   17.2493 C   0  0  0  0  0  0  0  0  0  0  0  0
   10.1297   -1.6575   23.2324 C   0  0  0  0  0  0  0  0  0  0  0  0
    9.4684   -1.6929   26.7263 F   0  0  0  0  0  0  0  0  0  0  0  0
    7.7963   -7.7906   17.9837 C   0  0  0  0  0  0  0  0  0  0  0  0
   10.5884   -3.0725   16.7902 O   0  0  0  0  0  0  0  0  0  0  0  0
   10.4323   -5.3494   20.3516 C   0  0  0  0  0  0  0  0  0  0  0  0
    7.1156   -7.5454   16.8218 C   0  0  0  0  0  0  0  0  0  0  0  0
   10.3885   -4.4388   19.2773 C   0  0  0  0  0  0  0  0  0  0  0  0
    4.5160   -9.3822   15.0841 C   0  0  0  0  0  0  0  0  0  0  0  0
  1  3  4  0
  1 24  4  0
  2  6  4  0
  2 15  4  0
  3  5  4  0
  3  6  4  0
  4 21  4  0
  4 29  4  0
  5 15  4  0
  5 28  1  0
  6 16  4  0
  7 18  4  0
  7 26  4  0
  8 18  1  0
  8 19  4  0
  8 22  4  0
  9 12  4  0
  9 19  4  0
 10 12  4  0
 10 22  4  0
 11 20  4  0
 11 21  4  0
 12 23  1  0
 13 20  4  0
 13 29  4  0
 14 17  4  0
 14 28  4  0
 15 25  2  0
 16 27  4  0
 17 18  4  0
 20 27  1  0
 24 27  4  0
 26 28  4  0
M  END
$$$$

 Created by Python create_sdf_string function

 29 33  0  0  0  0  0  0  0  0999 V2000
    8.8270   -7.0288   18.4251 C   0  0  0  0  0  0  0  0  0  0  0  0
    9.1576   -4.6236   15.8860 O   0  0  0  0  0  0  0  0  0  0  0  0
    9.1509   -5.9108   17.7177 C   0  0  0  0  0  0  0  0  0  0  0  0
    3.6373   -9.5349   16.0582 N   0  0  0  0  0  0  0  0  0  0  0  0
    9.9275   -4.8001   18.0438 N   0  0  0  0  0  0  0  0  0  0  0  0
    8.5908   -5.7425   16.4412 C   0  0  0  0  0  0  0  0  0  0  0  0
   10.5993   -4.8981   21.6068 C   0  0  0  0  0  0  0  0  0  0  0  0
   10.4258   -3.0106   23.0998 C   0  0  0  0  0  0  0  0  0  0  0  0
   10.2148   -3.4364   25.4200 C   0  0  0  0  0  0  0  0  0  0  0  0
    9.7853   -1.1840   24.4927 C   0  0  0  0  0  0  0  0  0  0  0  0
    5.0276   -8.5227   17.5352 C   0  0  0  0  0  0  0  0  0  0  0  0
    9.8187   -2.0895   25.5800 C   0  0  0  0  0  0  0  0  0  0  0  0
    5.6473   -8.7216   15.3158 C   0  0  0  0  0  0  0  0  0  0  0  0
   10.7581   -3.1233   19.4720 N   0  0  0  0  0  0  0  0  0  0  0  0
    9.9571   -4.0573   16.8866 C   0  0  0  0  0  0  0  0  0  0  0  0
    7.6213   -6.5618   16.0087 C   0  0  0  0  0  0  0  0  0  0  0  0
   10.8583   -2.6527   20.7222 C   0  0  0  0  0  0  0  0  0  0  0  0
   10.6412   -3.5089   21.7936 C   0  0  0  0  0  0  0  0  0  0  0  0
   10.4972   -3.8968   24.1589 C   0  0  0  0  0  0  0  0  0  0  0  0
    5.9260   -8.2736   16.5517 C   0  0  0  0  0  0  0  0  0  0  0  0
    3.8816   -9.1166   17.2493 C   0  0  0  0  0  0  0  0  0  0  0  0
   10.1297   -1.6575   23.2324 C   0  0  0  0  0  0  0  0  0  0  0  0
    9.4684   -1.6929   26.7263 F   0  0  0  0  0  0  0  0  0  0  0  0
    7.7963   -7.7906   17.9837 C   0  0  0  0  0  0  0  0  0  0  0  0
   10.5884   -3.0725   16.7902 O   0  0  0  0  0  0  0  0  0  0  0  0
   10.4323   -5.3494   20.3516 C   0  0  0  0  0  0  0  0  0  0  0  0
    7.1156   -7.5454   16.8218 C   0  0  0  0  0  0  0  0  0  0  0  0
   10.3885   -4.4388   19.2773 C   0  0  0  0  0  0  0  0  0  0  0  0
    4.5160   -9.3822   15.0841 C   0  0  0  0  0  0  0  0  0  0  0  0
  1  3  4  0
  1 24  4  0
  2  6  4  0
  2 15  4  0
  3  5  4  0
  3  6  4  0
  4 21  4  0
  4 29  4  0
  5 15  4  0
  5 28  1  0
  6 16  4  0
  7 18  4  0
  7 26  4  0
  8 18  1  0
  8 19  4  0
  8 22  4  0
  9 12  4  0
  9 19  4  0
 10 12  4  0
 10 22  4  0
 11 20  4  0
 11 21  4  0
 12 23  1  0
 13 20  4  0
 13 29  4  0
 14 17  4  0
 14 28  4  0
 15 25  2  0
 16 27  4  0
 17 18  4  0
 20 27  1  0
 24 27  4  0
 26 28  4  0
M  END
$$$$

 Created by Python create_sdf_string function

 29 33  0  0  0  0  0  0  0  0999 V2000
    8.8270   -7.0288   18.4251 C   0  0  0  0  0  0  0  0  0  0  0  0
    9.1576   -4.6236   15.8860 O   0  0  0  0  0  0  0  0  0  0  0  0
    9.1509   -5.9108   17.7177 C   0  0  0  0  0  0  0  0  0  0  0  0
    3.6373   -9.5349   16.0582 N   0  0  0  0  0  0  0  0  0  0  0  0
    9.9275   -4.8001   18.0438 N   0  0  0  0  0  0  0  0  0  0  0  0
    8.5908   -5.7425   16.4412 C   0  0  0  0  0  0  0  0  0  0  0  0
   10.5993   -4.8981   21.6068 C   0  0  0  0  0  0  0  0  0  0  0  0
   10.4258   -3.0106   23.0998 C   0  0  0  0  0  0  0  0  0  0  0  0
   10.2148   -3.4364   25.4200 C   0  0  0  0  0  0  0  0  0  0  0  0
    9.7853   -1.1840   24.4927 C   0  0  0  0  0  0  0  0  0  0  0  0
    5.0276   -8.5227   17.5352 C   0  0  0  0  0  0  0  0  0  0  0  0
    9.8187   -2.0895   25.5800 C   0  0  0  0  0  0  0  0  0  0  0  0
    5.6473   -8.7216   15.3158 C   0  0  0  0  0  0  0  0  0  0  0  0
   10.7581   -3.1233   19.4720 N   0  0  0  0  0  0  0  0  0  0  0  0
    9.9571   -4.0573   16.8866 C   0  0  0  0  0  0  0  0  0  0  0  0
    7.6213   -6.5618   16.0087 C   0  0  0  0  0  0  0  0  0  0  0  0
   10.8583   -2.6527   20.7222 C   0  0  0  0  0  0  0  0  0  0  0  0
   10.6412   -3.5089   21.7936 C   0  0  0  0  0  0  0  0  0  0  0  0
   10.4972   -3.8968   24.1589 C   0  0  0  0  0  0  0  0  0  0  0  0
    5.9260   -8.2736   16.5517 C   0  0  0  0  0  0  0  0  0  0  0  0
    3.8816   -9.1166   17.2493 C   0  0  0  0  0  0  0  0  0  0  0  0
   10.1297   -1.6575   23.2324 C   0  0  0  0  0  0  0  0  0  0  0  0
    9.4684   -1.6929   26.7263 F   0  0  0  0  0  0  0  0  0  0  0  0
    7.7963   -7.7906   17.9837 C   0  0  0  0  0  0  0  0  0  0  0  0
   10.5884   -3.0725   16.7902 O   0  0  0  0  0  0  0  0  0  0  0  0
   10.4323   -5.3494   20.3516 C   0  0  0  0  0  0  0  0  0  0  0  0
    7.1156   -7.5454   16.8218 C   0  0  0  0  0  0  0  0  0  0  0  0
   10.3885   -4.4388   19.2773 C   0  0  0  0  0  0  0  0  0  0  0  0
    4.5160   -9.3822   15.0841 C   0  0  0  0  0  0  0  0  0  0  0  0
  1  3  4  0
  1 24  4  0
  2  6  4  0
  2 15  4  0
  3  5  4  0
  3  6  4  0
  4 21  4  0
  4 29  4  0
  5 15  4  0
  5 28  1  0
  6 16  4  0
  7 18  4  0
  7 26  4  0
  8 18  1  0
  8 19  4  0
  8 22  4  0
  9 12  4  0
  9 19  4  0
 10 12  4  0
 10 22  4  0
 11 20  4  0
 11 21  4  0
 12 23  1  0
 13 20  4  0
 13 29  4  0
 14 17  4  0
 14 28  4  0
 15 25  2  0
 16 27  4  0
 17 18  4  0
 20 27  1  0
 24 27  4  0
 26 28  4  0
M  END
$$$$

 Created by Python create_sdf_string function

 29 33  0  0  0  0  0  0  0  0999 V2000
    8.8270   -7.0288   18.4251 C   0  0  0  0  0  0  0  0  0  0  0  0
    9.1576   -4.6236   15.8860 O   0  0  0  0  0  0  0  0  0  0  0  0
    9.1509   -5.9108   17.7177 C   0  0  0  0  0  0  0  0  0  0  0  0
    3.6373   -9.5349   16.0582 N   0  0  0  0  0  0  0  0  0  0  0  0
    9.9275   -4.8001   18.0438 N   0  0  0  0  0  0  0  0  0  0  0  0
    8.5908   -5.7425   16.4412 C   0  0  0  0  0  0  0  0  0  0  0  0
   10.5993   -4.8981   21.6068 C   0  0  0  0  0  0  0  0  0  0  0  0
   10.4258   -3.0106   23.0998 C   0  0  0  0  0  0  0  0  0  0  0  0
   10.2148   -3.4364   25.4200 C   0  0  0  0  0  0  0  0  0  0  0  0
    9.7853   -1.1840   24.4927 C   0  0  0  0  0  0  0  0  0  0  0  0
    5.0276   -8.5227   17.5352 C   0  0  0  0  0  0  0  0  0  0  0  0
    9.8187   -2.0895   25.5800 C   0  0  0  0  0  0  0  0  0  0  0  0
    5.6473   -8.7216   15.3158 C   0  0  0  0  0  0  0  0  0  0  0  0
   10.7581   -3.1233   19.4720 N   0  0  0  0  0  0  0  0  0  0  0  0
    9.9571   -4.0573   16.8866 C   0  0  0  0  0  0  0  0  0  0  0  0
    7.6213   -6.5618   16.0087 C   0  0  0  0  0  0  0  0  0  0  0  0
   10.8583   -2.6527   20.7222 C   0  0  0  0  0  0  0  0  0  0  0  0
   10.6412   -3.5089   21.7936 C   0  0  0  0  0  0  0  0  0  0  0  0
   10.4972   -3.8968   24.1589 C   0  0  0  0  0  0  0  0  0  0  0  0
    5.9260   -8.2736   16.5517 C   0  0  0  0  0  0  0  0  0  0  0  0
    3.8816   -9.1166   17.2493 C   0  0  0  0  0  0  0  0  0  0  0  0
   10.1297   -1.6575   23.2324 C   0  0  0  0  0  0  0  0  0  0  0  0
    9.4684   -1.6929   26.7263 F   0  0  0  0  0  0  0  0  0  0  0  0
    7.7963   -7.7906   17.9837 C   0  0  0  0  0  0  0  0  0  0  0  0
   10.5884   -3.0725   16.7902 O   0  0  0  0  0  0  0  0  0  0  0  0
   10.4323   -5.3494   20.3516 C   0  0  0  0  0  0  0  0  0  0  0  0
    7.1156   -7.5454   16.8218 C   0  0  0  0  0  0  0  0  0  0  0  0
   10.3885   -4.4388   19.2773 C   0  0  0  0  0  0  0  0  0  0  0  0
    4.5160   -9.3822   15.0841 C   0  0  0  0  0  0  0  0  0  0  0  0
  1  3  4  0
  1 24  4  0
  2  6  4  0
  2 15  4  0
  3  5  4  0
  3  6  4  0
  4 21  4  0
  4 29  4  0
  5 15  4  0
  5 28  1  0
  6 16  4  0
  7 18  4  0
  7 26  4  0
  8 18  1  0
  8 19  4  0
  8 22  4  0
  9 12  4  0
  9 19  4  0
 10 12  4  0
 10 22  4  0
 11 20  4  0
 11 21  4  0
 12 23  1  0
 13 20  4  0
 13 29  4  0
 14 17  4  0
 14 28  4  0
 15 25  2  0
 16 27  4  0
 17 18  4  0
 20 27  1  0
 24 27  4  0
 26 28  4  0
M  END
$$$$

 Created by Python create_sdf_string function

 29 33  0  0  0  0  0  0  0  0999 V2000
    8.8270   -7.0288   18.4251 C   0  0  0  0  0  0  0  0  0  0  0  0
    9.1576   -4.6236   15.8860 O   0  0  0  0  0  0  0  0  0  0  0  0
    9.1509   -5.9108   17.7177 C   0  0  0  0  0  0  0  0  0  0  0  0
    3.6373   -9.5349   16.0582 N   0  0  0  0  0  0  0  0  0  0  0  0
    9.9275   -4.8001   18.0438 N   0  0  0  0  0  0  0  0  0  0  0  0
    8.5908   -5.7425   16.4412 C   0  0  0  0  0  0  0  0  0  0  0  0
   10.5993   -4.8981   21.6068 C   0  0  0  0  0  0  0  0  0  0  0  0
   10.4258   -3.0106   23.0998 C   0  0  0  0  0  0  0  0  0  0  0  0
   10.2148   -3.4364   25.4200 C   0  0  0  0  0  0  0  0  0  0  0  0
    9.7853   -1.1840   24.4927 C   0  0  0  0  0  0  0  0  0  0  0  0
    5.0276   -8.5227   17.5352 C   0  0  0  0  0  0  0  0  0  0  0  0
    9.8187   -2.0895   25.5800 C   0  0  0  0  0  0  0  0  0  0  0  0
    5.6473   -8.7216   15.3158 C   0  0  0  0  0  0  0  0  0  0  0  0
   10.7581   -3.1233   19.4720 N   0  0  0  0  0  0  0  0  0  0  0  0
    9.9571   -4.0573   16.8866 C   0  0  0  0  0  0  0  0  0  0  0  0
    7.6213   -6.5618   16.0087 C   0  0  0  0  0  0  0  0  0  0  0  0
   10.8583   -2.6527   20.7222 C   0  0  0  0  0  0  0  0  0  0  0  0
   10.6412   -3.5089   21.7936 C   0  0  0  0  0  0  0  0  0  0  0  0
   10.4972   -3.8968   24.1589 C   0  0  0  0  0  0  0  0  0  0  0  0
    5.9260   -8.2736   16.5517 C   0  0  0  0  0  0  0  0  0  0  0  0
    3.8816   -9.1166   17.2493 C   0  0  0  0  0  0  0  0  0  0  0  0
   10.1297   -1.6575   23.2324 C   0  0  0  0  0  0  0  0  0  0  0  0
    9.4684   -1.6929   26.7263 F   0  0  0  0  0  0  0  0  0  0  0  0
    7.7963   -7.7906   17.9837 C   0  0  0  0  0  0  0  0  0  0  0  0
   10.5884   -3.0725   16.7902 O   0  0  0  0  0  0  0  0  0  0  0  0
   10.4323   -5.3494   20.3516 C   0  0  0  0  0  0  0  0  0  0  0  0
    7.1156   -7.5454   16.8218 C   0  0  0  0  0  0  0  0  0  0  0  0
   10.3885   -4.4388   19.2773 C   0  0  0  0  0  0  0  0  0  0  0  0
    4.5160   -9.3822   15.0841 C   0  0  0  0  0  0  0  0  0  0  0  0
  1  3  4  0
  1 24  4  0
  2  6  4  0
  2 15  4  0
  3  5  4  0
  3  6  4  0
  4 21  4  0
  4 29  4  0
  5 15  4  0
  5 28  1  0
  6 16  4  0
  7 18  4  0
  7 26  4  0
  8 18  1  0
  8 19  4  0
  8 22  4  0
  9 12  4  0
  9 19  4  0
 10 12  4  0
 10 22  4  0
 11 20  4  0
 11 21  4  0
 12 23  1  0
 13 20  4  0
 13 29  4  0
 14 17  4  0
 14 28  4  0
 15 25  2  0
 16 27  4  0
 17 18  4  0
 20 27  1  0
 24 27  4  0
 26 28  4  0
M  END
$$$$

 Created by Python create_sdf_string function

 29 33  0  0  0  0  0  0  0  0999 V2000
    8.8270   -7.0288   18.4251 C   0  0  0  0  0  0  0  0  0  0  0  0
    9.1576   -4.6236   15.8860 O   0  0  0  0  0  0  0  0  0  0  0  0
    9.1509   -5.9108   17.7177 C   0  0  0  0  0  0  0  0  0  0  0  0
    3.6373   -9.5349   16.0582 N   0  0  0  0  0  0  0  0  0  0  0  0
    9.9275   -4.8001   18.0438 N   0  0  0  0  0  0  0  0  0  0  0  0
    8.5908   -5.7425   16.4412 C   0  0  0  0  0  0  0  0  0  0  0  0
   10.5993   -4.8981   21.6068 C   0  0  0  0  0  0  0  0  0  0  0  0
   10.4258   -3.0106   23.0998 C   0  0  0  0  0  0  0  0  0  0  0  0
   10.2148   -3.4364   25.4200 C   0  0  0  0  0  0  0  0  0  0  0  0
    9.7853   -1.1840   24.4927 C   0  0  0  0  0  0  0  0  0  0  0  0
    5.0276   -8.5227   17.5352 C   0  0  0  0  0  0  0  0  0  0  0  0
    9.8187   -2.0895   25.5800 C   0  0  0  0  0  0  0  0  0  0  0  0
    5.6473   -8.7216   15.3158 C   0  0  0  0  0  0  0  0  0  0  0  0
   10.7581   -3.1233   19.4720 N   0  0  0  0  0  0  0  0  0  0  0  0
    9.9571   -4.0573   16.8866 C   0  0  0  0  0  0  0  0  0  0  0  0
    7.6213   -6.5618   16.0087 C   0  0  0  0  0  0  0  0  0  0  0  0
   10.8583   -2.6527   20.7222 C   0  0  0  0  0  0  0  0  0  0  0  0
   10.6412   -3.5089   21.7936 C   0  0  0  0  0  0  0  0  0  0  0  0
   10.4972   -3.8968   24.1589 C   0  0  0  0  0  0  0  0  0  0  0  0
    5.9260   -8.2736   16.5517 C   0  0  0  0  0  0  0  0  0  0  0  0
    3.8816   -9.1166   17.2493 C   0  0  0  0  0  0  0  0  0  0  0  0
   10.1297   -1.6575   23.2324 C   0  0  0  0  0  0  0  0  0  0  0  0
    9.4684   -1.6929   26.7263 F   0  0  0  0  0  0  0  0  0  0  0  0
    7.7963   -7.7906   17.9837 C   0  0  0  0  0  0  0  0  0  0  0  0
   10.5884   -3.0725   16.7902 O   0  0  0  0  0  0  0  0  0  0  0  0
   10.4323   -5.3494   20.3516 C   0  0  0  0  0  0  0  0  0  0  0  0
    7.1156   -7.5454   16.8218 C   0  0  0  0  0  0  0  0  0  0  0  0
   10.3885   -4.4388   19.2773 C   0  0  0  0  0  0  0  0  0  0  0  0
    4.5160   -9.3822   15.0841 C   0  0  0  0  0  0  0  0  0  0  0  0
  1  3  4  0
  1 24  4  0
  2  6  4  0
  2 15  4  0
  3  5  4  0
  3  6  4  0
  4 21  4  0
  4 29  4  0
  5 15  4  0
  5 28  1  0
  6 16  4  0
  7 18  4  0
  7 26  4  0
  8 18  1  0
  8 19  4  0
  8 22  4  0
  9 12  4  0
  9 19  4  0
 10 12  4  0
 10 22  4  0
 11 20  4  0
 11 21  4  0
 12 23  1  0
 13 20  4  0
 13 29  4  0
 14 17  4  0
 14 28  4  0
 15 25  2  0
 16 27  4  0
 17 18  4  0
 20 27  1  0
 24 27  4  0
 26 28  4  0
M  END
$$$$

 Created by Python create_sdf_string function

 29 33  0  0  0  0  0  0  0  0999 V2000
    8.8270   -7.0288   18.4251 C   0  0  0  0  0  0  0  0  0  0  0  0
    9.1576   -4.6236   15.8860 O   0  0  0  0  0  0  0  0  0  0  0  0
    9.1509   -5.9108   17.7177 C   0  0  0  0  0  0  0  0  0  0  0  0
    3.6373   -9.5349   16.0582 N   0  0  0  0  0  0  0  0  0  0  0  0
    9.9275   -4.8001   18.0438 N   0  0  0  0  0  0  0  0  0  0  0  0
    8.5908   -5.7425   16.4412 C   0  0  0  0  0  0  0  0  0  0  0  0
   10.5993   -4.8981   21.6068 C   0  0  0  0  0  0  0  0  0  0  0  0
   10.4258   -3.0106   23.0998 C   0  0  0  0  0  0  0  0  0  0  0  0
   10.2148   -3.4364   25.4200 C   0  0  0  0  0  0  0  0  0  0  0  0
    9.7853   -1.1840   24.4927 C   0  0  0  0  0  0  0  0  0  0  0  0
    5.0276   -8.5227   17.5352 C   0  0  0  0  0  0  0  0  0  0  0  0
    9.8187   -2.0895   25.5800 C   0  0  0  0  0  0  0  0  0  0  0  0
    5.6473   -8.7216   15.3158 C   0  0  0  0  0  0  0  0  0  0  0  0
   10.7581   -3.1233   19.4720 N   0  0  0  0  0  0  0  0  0  0  0  0
    9.9571   -4.0573   16.8866 C   0  0  0  0  0  0  0  0  0  0  0  0
    7.6213   -6.5618   16.0087 C   0  0  0  0  0  0  0  0  0  0  0  0
   10.8583   -2.6527   20.7222 C   0  0  0  0  0  0  0  0  0  0  0  0
   10.6412   -3.5089   21.7936 C   0  0  0  0  0  0  0  0  0  0  0  0
   10.4972   -3.8968   24.1589 C   0  0  0  0  0  0  0  0  0  0  0  0
    5.9260   -8.2736   16.5517 C   0  0  0  0  0  0  0  0  0  0  0  0
    3.8816   -9.1166   17.2493 C   0  0  0  0  0  0  0  0  0  0  0  0
   10.1297   -1.6575   23.2324 C   0  0  0  0  0  0  0  0  0  0  0  0
    9.4684   -1.6929   26.7263 F   0  0  0  0  0  0  0  0  0  0  0  0
    7.7963   -7.7906   17.9837 C   0  0  0  0  0  0  0  0  0  0  0  0
   10.5884   -3.0725   16.7902 O   0  0  0  0  0  0  0  0  0  0  0  0
   10.4323   -5.3494   20.3516 C   0  0  0  0  0  0  0  0  0  0  0  0
    7.1156   -7.5454   16.8218 C   0  0  0  0  0  0  0  0  0  0  0  0
   10.3885   -4.4388   19.2773 C   0  0  0  0  0  0  0  0  0  0  0  0
    4.5160   -9.3822   15.0841 C   0  0  0  0  0  0  0  0  0  0  0  0
  1  3  4  0
  1 24  4  0
  2  6  4  0
  2 15  4  0
  3  5  4  0
  3  6  4  0
  4 21  4  0
  4 29  4  0
  5 15  4  0
  5 28  1  0
  6 16  4  0
  7 18  4  0
  7 26  4  0
  8 18  1  0
  8 19  4  0
  8 22  4  0
  9 12  4  0
  9 19  4  0
 10 12  4  0
 10 22  4  0
 11 20  4  0
 11 21  4  0
 12 23  1  0
 13 20  4  0
 13 29  4  0
 14 17  4  0
 14 28  4  0
 15 25  2  0
 16 27  4  0
 17 18  4  0
 20 27  1  0
 24 27  4  0
 26 28  4  0
M  END
$$$$

 Created by Python create_sdf_string function

 29 33  0  0  0  0  0  0  0  0999 V2000
    8.8270   -7.0288   18.4251 C   0  0  0  0  0  0  0  0  0  0  0  0
    9.1576   -4.6236   15.8860 O   0  0  0  0  0  0  0  0  0  0  0  0
    9.1509   -5.9108   17.7177 C   0  0  0  0  0  0  0  0  0  0  0  0
    3.6373   -9.5349   16.0582 N   0  0  0  0  0  0  0  0  0  0  0  0
    9.9275   -4.8001   18.0438 N   0  0  0  0  0  0  0  0  0  0  0  0
    8.5908   -5.7425   16.4412 C   0  0  0  0  0  0  0  0  0  0  0  0
   10.5993   -4.8981   21.6068 C   0  0  0  0  0  0  0  0  0  0  0  0
   10.4258   -3.0106   23.0998 C   0  0  0  0  0  0  0  0  0  0  0  0
   10.2148   -3.4364   25.4200 C   0  0  0  0  0  0  0  0  0  0  0  0
    9.7853   -1.1840   24.4927 C   0  0  0  0  0  0  0  0  0  0  0  0
    5.0276   -8.5227   17.5352 C   0  0  0  0  0  0  0  0  0  0  0  0
    9.8187   -2.0895   25.5800 C   0  0  0  0  0  0  0  0  0  0  0  0
    5.6473   -8.7216   15.3158 C   0  0  0  0  0  0  0  0  0  0  0  0
   10.7581   -3.1233   19.4720 N   0  0  0  0  0  0  0  0  0  0  0  0
    9.9571   -4.0573   16.8866 C   0  0  0  0  0  0  0  0  0  0  0  0
    7.6213   -6.5618   16.0087 C   0  0  0  0  0  0  0  0  0  0  0  0
   10.8583   -2.6527   20.7222 C   0  0  0  0  0  0  0  0  0  0  0  0
   10.6412   -3.5089   21.7936 C   0  0  0  0  0  0  0  0  0  0  0  0
   10.4972   -3.8968   24.1589 C   0  0  0  0  0  0  0  0  0  0  0  0
    5.9260   -8.2736   16.5517 C   0  0  0  0  0  0  0  0  0  0  0  0
    3.8816   -9.1166   17.2493 C   0  0  0  0  0  0  0  0  0  0  0  0
   10.1297   -1.6575   23.2324 C   0  0  0  0  0  0  0  0  0  0  0  0
    9.4684   -1.6929   26.7263 F   0  0  0  0  0  0  0  0  0  0  0  0
    7.7963   -7.7906   17.9837 C   0  0  0  0  0  0  0  0  0  0  0  0
   10.5884   -3.0725   16.7902 O   0  0  0  0  0  0  0  0  0  0  0  0
   10.4323   -5.3494   20.3516 C   0  0  0  0  0  0  0  0  0  0  0  0
    7.1156   -7.5454   16.8218 C   0  0  0  0  0  0  0  0  0  0  0  0
   10.3885   -4.4388   19.2773 C   0  0  0  0  0  0  0  0  0  0  0  0
    4.5160   -9.3822   15.0841 C   0  0  0  0  0  0  0  0  0  0  0  0
  1  3  4  0
  1 24  4  0
  2  6  4  0
  2 15  4  0
  3  5  4  0
  3  6  4  0
  4 21  4  0
  4 29  4  0
  5 15  4  0
  5 28  1  0
  6 16  4  0
  7 18  4  0
  7 26  4  0
  8 18  1  0
  8 19  4  0
  8 22  4  0
  9 12  4  0
  9 19  4  0
 10 12  4  0
 10 22  4  0
 11 20  4  0
 11 21  4  0
 12 23  1  0
 13 20  4  0
 13 29  4  0
 14 17  4  0
 14 28  4  0
 15 25  2  0
 16 27  4  0
 17 18  4  0
 20 27  1  0
 24 27  4  0
 26 28  4  0
M  END
$$$$

 Created by Python create_sdf_string function

 29 33  0  0  0  0  0  0  0  0999 V2000
    8.8270   -7.0288   18.4251 C   0  0  0  0  0  0  0  0  0  0  0  0
    9.1576   -4.6236   15.8860 O   0  0  0  0  0  0  0  0  0  0  0  0
    9.1509   -5.9108   17.7177 C   0  0  0  0  0  0  0  0  0  0  0  0
    3.6373   -9.5349   16.0582 N   0  0  0  0  0  0  0  0  0  0  0  0
    9.9275   -4.8001   18.0438 N   0  0  0  0  0  0  0  0  0  0  0  0
    8.5908   -5.7425   16.4412 C   0  0  0  0  0  0  0  0  0  0  0  0
   10.5993   -4.8981   21.6068 C   0  0  0  0  0  0  0  0  0  0  0  0
   10.4258   -3.0106   23.0998 C   0  0  0  0  0  0  0  0  0  0  0  0
   10.2148   -3.4364   25.4200 C   0  0  0  0  0  0  0  0  0  0  0  0
    9.7853   -1.1840   24.4927 C   0  0  0  0  0  0  0  0  0  0  0  0
    5.0276   -8.5227   17.5352 C   0  0  0  0  0  0  0  0  0  0  0  0
    9.8187   -2.0895   25.5800 C   0  0  0  0  0  0  0  0  0  0  0  0
    5.6473   -8.7216   15.3158 C   0  0  0  0  0  0  0  0  0  0  0  0
   10.7581   -3.1233   19.4720 N   0  0  0  0  0  0  0  0  0  0  0  0
    9.9571   -4.0573   16.8866 C   0  0  0  0  0  0  0  0  0  0  0  0
    7.6213   -6.5618   16.0087 C   0  0  0  0  0  0  0  0  0  0  0  0
   10.8583   -2.6527   20.7222 C   0  0  0  0  0  0  0  0  0  0  0  0
   10.6412   -3.5089   21.7936 C   0  0  0  0  0  0  0  0  0  0  0  0
   10.4972   -3.8968   24.1589 C   0  0  0  0  0  0  0  0  0  0  0  0
    5.9260   -8.2736   16.5517 C   0  0  0  0  0  0  0  0  0  0  0  0
    3.8816   -9.1166   17.2493 C   0  0  0  0  0  0  0  0  0  0  0  0
   10.1297   -1.6575   23.2324 C   0  0  0  0  0  0  0  0  0  0  0  0
    9.4684   -1.6929   26.7263 F   0  0  0  0  0  0  0  0  0  0  0  0
    7.7963   -7.7906   17.9837 C   0  0  0  0  0  0  0  0  0  0  0  0
   10.5884   -3.0725   16.7902 O   0  0  0  0  0  0  0  0  0  0  0  0
   10.4323   -5.3494   20.3516 C   0  0  0  0  0  0  0  0  0  0  0  0
    7.1156   -7.5454   16.8218 C   0  0  0  0  0  0  0  0  0  0  0  0
   10.3885   -4.4388   19.2773 C   0  0  0  0  0  0  0  0  0  0  0  0
    4.5160   -9.3822   15.0841 C   0  0  0  0  0  0  0  0  0  0  0  0
  1  3  4  0
  1 24  4  0
  2  6  4  0
  2 15  4  0
  3  5  4  0
  3  6  4  0
  4 21  4  0
  4 29  4  0
  5 15  4  0
  5 28  1  0
  6 16  4  0
  7 18  4  0
  7 26  4  0
  8 18  1  0
  8 19  4  0
  8 22  4  0
  9 12  4  0
  9 19  4  0
 10 12  4  0
 10 22  4  0
 11 20  4  0
 11 21  4  0
 12 23  1  0
 13 20  4  0
 13 29  4  0
 14 17  4  0
 14 28  4  0
 15 25  2  0
 16 27  4  0
 17 18  4  0
 20 27  1  0
 24 27  4  0
 26 28  4  0
M  END
$$$$

 Created by Python create_sdf_string function

 29 33  0  0  0  0  0  0  0  0999 V2000
    8.8270   -7.0288   18.4251 C   0  0  0  0  0  0  0  0  0  0  0  0
    9.1576   -4.6236   15.8860 O   0  0  0  0  0  0  0  0  0  0  0  0
    9.1509   -5.9108   17.7177 C   0  0  0  0  0  0  0  0  0  0  0  0
    3.6373   -9.5349   16.0582 N   0  0  0  0  0  0  0  0  0  0  0  0
    9.9275   -4.8001   18.0438 N   0  0  0  0  0  0  0  0  0  0  0  0
    8.5908   -5.7425   16.4412 C   0  0  0  0  0  0  0  0  0  0  0  0
   10.5993   -4.8981   21.6068 C   0  0  0  0  0  0  0  0  0  0  0  0
   10.4258   -3.0106   23.0998 C   0  0  0  0  0  0  0  0  0  0  0  0
   10.2148   -3.4364   25.4200 C   0  0  0  0  0  0  0  0  0  0  0  0
    9.7853   -1.1840   24.4927 C   0  0  0  0  0  0  0  0  0  0  0  0
    5.0276   -8.5227   17.5352 C   0  0  0  0  0  0  0  0  0  0  0  0
    9.8187   -2.0895   25.5800 C   0  0  0  0  0  0  0  0  0  0  0  0
    5.6473   -8.7216   15.3158 C   0  0  0  0  0  0  0  0  0  0  0  0
   10.7581   -3.1233   19.4720 N   0  0  0  0  0  0  0  0  0  0  0  0
    9.9571   -4.0573   16.8866 C   0  0  0  0  0  0  0  0  0  0  0  0
    7.6213   -6.5618   16.0087 C   0  0  0  0  0  0  0  0  0  0  0  0
   10.8583   -2.6527   20.7222 C   0  0  0  0  0  0  0  0  0  0  0  0
   10.6412   -3.5089   21.7936 C   0  0  0  0  0  0  0  0  0  0  0  0
   10.4972   -3.8968   24.1589 C   0  0  0  0  0  0  0  0  0  0  0  0
    5.9260   -8.2736   16.5517 C   0  0  0  0  0  0  0  0  0  0  0  0
    3.8816   -9.1166   17.2493 C   0  0  0  0  0  0  0  0  0  0  0  0
   10.1297   -1.6575   23.2324 C   0  0  0  0  0  0  0  0  0  0  0  0
    9.4684   -1.6929   26.7263 F   0  0  0  0  0  0  0  0  0  0  0  0
    7.7963   -7.7906   17.9837 C   0  0  0  0  0  0  0  0  0  0  0  0
   10.5884   -3.0725   16.7902 O   0  0  0  0  0  0  0  0  0  0  0  0
   10.4323   -5.3494   20.3516 C   0  0  0  0  0  0  0  0  0  0  0  0
    7.1156   -7.5454   16.8218 C   0  0  0  0  0  0  0  0  0  0  0  0
   10.3885   -4.4388   19.2773 C   0  0  0  0  0  0  0  0  0  0  0  0
    4.5160   -9.3822   15.0841 C   0  0  0  0  0  0  0  0  0  0  0  0
  1  3  4  0
  1 24  4  0
  2  6  4  0
  2 15  4  0
  3  5  4  0
  3  6  4  0
  4 21  4  0
  4 29  4  0
  5 15  4  0
  5 28  1  0
  6 16  4  0
  7 18  4  0
  7 26  4  0
  8 18  1  0
  8 19  4  0
  8 22  4  0
  9 12  4  0
  9 19  4  0
 10 12  4  0
 10 22  4  0
 11 20  4  0
 11 21  4  0
 12 23  1  0
 13 20  4  0
 13 29  4  0
 14 17  4  0
 14 28  4  0
 15 25  2  0
 16 27  4  0
 17 18  4  0
 20 27  1  0
 24 27  4  0
 26 28  4  0
M  END
$$$$

 Created by Python create_sdf_string function

 29 33  0  0  0  0  0  0  0  0999 V2000
    8.8270   -7.0288   18.4251 C   0  0  0  0  0  0  0  0  0  0  0  0
    9.1576   -4.6236   15.8860 O   0  0  0  0  0  0  0  0  0  0  0  0
    9.1509   -5.9108   17.7177 C   0  0  0  0  0  0  0  0  0  0  0  0
    3.6373   -9.5349   16.0582 N   0  0  0  0  0  0  0  0  0  0  0  0
    9.9275   -4.8001   18.0438 N   0  0  0  0  0  0  0  0  0  0  0  0
    8.5908   -5.7425   16.4412 C   0  0  0  0  0  0  0  0  0  0  0  0
   10.5993   -4.8981   21.6068 C   0  0  0  0  0  0  0  0  0  0  0  0
   10.4258   -3.0106   23.0998 C   0  0  0  0  0  0  0  0  0  0  0  0
   10.2148   -3.4364   25.4200 C   0  0  0  0  0  0  0  0  0  0  0  0
    9.7853   -1.1840   24.4927 C   0  0  0  0  0  0  0  0  0  0  0  0
    5.0276   -8.5227   17.5352 C   0  0  0  0  0  0  0  0  0  0  0  0
    9.8187   -2.0895   25.5800 C   0  0  0  0  0  0  0  0  0  0  0  0
    5.6473   -8.7216   15.3158 C   0  0  0  0  0  0  0  0  0  0  0  0
   10.7581   -3.1233   19.4720 N   0  0  0  0  0  0  0  0  0  0  0  0
    9.9571   -4.0573   16.8866 C   0  0  0  0  0  0  0  0  0  0  0  0
    7.6213   -6.5618   16.0087 C   0  0  0  0  0  0  0  0  0  0  0  0
   10.8583   -2.6527   20.7222 C   0  0  0  0  0  0  0  0  0  0  0  0
   10.6412   -3.5089   21.7936 C   0  0  0  0  0  0  0  0  0  0  0  0
   10.4972   -3.8968   24.1589 C   0  0  0  0  0  0  0  0  0  0  0  0
    5.9260   -8.2736   16.5517 C   0  0  0  0  0  0  0  0  0  0  0  0
    3.8816   -9.1166   17.2493 C   0  0  0  0  0  0  0  0  0  0  0  0
   10.1297   -1.6575   23.2324 C   0  0  0  0  0  0  0  0  0  0  0  0
    9.4684   -1.6929   26.7263 F   0  0  0  0  0  0  0  0  0  0  0  0
    7.7963   -7.7906   17.9837 C   0  0  0  0  0  0  0  0  0  0  0  0
   10.5884   -3.0725   16.7902 O   0  0  0  0  0  0  0  0  0  0  0  0
   10.4323   -5.3494   20.3516 C   0  0  0  0  0  0  0  0  0  0  0  0
    7.1156   -7.5454   16.8218 C   0  0  0  0  0  0  0  0  0  0  0  0
   10.3885   -4.4388   19.2773 C   0  0  0  0  0  0  0  0  0  0  0  0
    4.5160   -9.3822   15.0841 C   0  0  0  0  0  0  0  0  0  0  0  0
  1  3  4  0
  1 24  4  0
  2  6  4  0
  2 15  4  0
  3  5  4  0
  3  6  4  0
  4 21  4  0
  4 29  4  0
  5 15  4  0
  5 28  1  0
  6 16  4  0
  7 18  4  0
  7 26  4  0
  8 18  1  0
  8 19  4  0
  8 22  4  0
  9 12  4  0
  9 19  4  0
 10 12  4  0
 10 22  4  0
 11 20  4  0
 11 21  4  0
 12 23  1  0
 13 20  4  0
 13 29  4  0
 14 17  4  0
 14 28  4  0
 15 25  2  0
 16 27  4  0
 17 18  4  0
 20 27  1  0
 24 27  4  0
 26 28  4  0
M  END
$$$$

 Created by Python create_sdf_string function

 29 33  0  0  0  0  0  0  0  0999 V2000
    8.8270   -7.0288   18.4251 C   0  0  0  0  0  0  0  0  0  0  0  0
    9.1576   -4.6236   15.8860 O   0  0  0  0  0  0  0  0  0  0  0  0
    9.1509   -5.9108   17.7177 C   0  0  0  0  0  0  0  0  0  0  0  0
    3.6373   -9.5349   16.0582 N   0  0  0  0  0  0  0  0  0  0  0  0
    9.9275   -4.8001   18.0438 N   0  0  0  0  0  0  0  0  0  0  0  0
    8.5908   -5.7425   16.4412 C   0  0  0  0  0  0  0  0  0  0  0  0
   10.5993   -4.8981   21.6068 C   0  0  0  0  0  0  0  0  0  0  0  0
   10.4258   -3.0106   23.0998 C   0  0  0  0  0  0  0  0  0  0  0  0
   10.2148   -3.4364   25.4200 C   0  0  0  0  0  0  0  0  0  0  0  0
    9.7853   -1.1840   24.4927 C   0  0  0  0  0  0  0  0  0  0  0  0
    5.0276   -8.5227   17.5352 C   0  0  0  0  0  0  0  0  0  0  0  0
    9.8187   -2.0895   25.5800 C   0  0  0  0  0  0  0  0  0  0  0  0
    5.6473   -8.7216   15.3158 C   0  0  0  0  0  0  0  0  0  0  0  0
   10.7581   -3.1233   19.4720 N   0  0  0  0  0  0  0  0  0  0  0  0
    9.9571   -4.0573   16.8866 C   0  0  0  0  0  0  0  0  0  0  0  0
    7.6213   -6.5618   16.0087 C   0  0  0  0  0  0  0  0  0  0  0  0
   10.8583   -2.6527   20.7222 C   0  0  0  0  0  0  0  0  0  0  0  0
   10.6412   -3.5089   21.7936 C   0  0  0  0  0  0  0  0  0  0  0  0
   10.4972   -3.8968   24.1589 C   0  0  0  0  0  0  0  0  0  0  0  0
    5.9260   -8.2736   16.5517 C   0  0  0  0  0  0  0  0  0  0  0  0
    3.8816   -9.1166   17.2493 C   0  0  0  0  0  0  0  0  0  0  0  0
   10.1297   -1.6575   23.2324 C   0  0  0  0  0  0  0  0  0  0  0  0
    9.4684   -1.6929   26.7263 F   0  0  0  0  0  0  0  0  0  0  0  0
    7.7963   -7.7906   17.9837 C   0  0  0  0  0  0  0  0  0  0  0  0
   10.5884   -3.0725   16.7902 O   0  0  0  0  0  0  0  0  0  0  0  0
   10.4323   -5.3494   20.3516 C   0  0  0  0  0  0  0  0  0  0  0  0
    7.1156   -7.5454   16.8218 C   0  0  0  0  0  0  0  0  0  0  0  0
   10.3885   -4.4388   19.2773 C   0  0  0  0  0  0  0  0  0  0  0  0
    4.5160   -9.3822   15.0841 C   0  0  0  0  0  0  0  0  0  0  0  0
  1  3  4  0
  1 24  4  0
  2  6  4  0
  2 15  4  0
  3  5  4  0
  3  6  4  0
  4 21  4  0
  4 29  4  0
  5 15  4  0
  5 28  1  0
  6 16  4  0
  7 18  4  0
  7 26  4  0
  8 18  1  0
  8 19  4  0
  8 22  4  0
  9 12  4  0
  9 19  4  0
 10 12  4  0
 10 22  4  0
 11 20  4  0
 11 21  4  0
 12 23  1  0
 13 20  4  0
 13 29  4  0
 14 17  4  0
 14 28  4  0
 15 25  2  0
 16 27  4  0
 17 18  4  0
 20 27  1  0
 24 27  4  0
 26 28  4  0
M  END
$$$$

 Created by Python create_sdf_string function

 29 33  0  0  0  0  0  0  0  0999 V2000
    8.8270   -7.0288   18.4251 C   0  0  0  0  0  0  0  0  0  0  0  0
    9.1576   -4.6236   15.8860 O   0  0  0  0  0  0  0  0  0  0  0  0
    9.1509   -5.9108   17.7177 C   0  0  0  0  0  0  0  0  0  0  0  0
    3.6373   -9.5349   16.0582 N   0  0  0  0  0  0  0  0  0  0  0  0
    9.9275   -4.8001   18.0438 N   0  0  0  0  0  0  0  0  0  0  0  0
    8.5908   -5.7425   16.4412 C   0  0  0  0  0  0  0  0  0  0  0  0
   10.5993   -4.8981   21.6068 C   0  0  0  0  0  0  0  0  0  0  0  0
   10.4258   -3.0106   23.0998 C   0  0  0  0  0  0  0  0  0  0  0  0
   10.2148   -3.4364   25.4200 C   0  0  0  0  0  0  0  0  0  0  0  0
    9.7853   -1.1840   24.4927 C   0  0  0  0  0  0  0  0  0  0  0  0
    5.0276   -8.5227   17.5352 C   0  0  0  0  0  0  0  0  0  0  0  0
    9.8187   -2.0895   25.5800 C   0  0  0  0  0  0  0  0  0  0  0  0
    5.6473   -8.7216   15.3158 C   0  0  0  0  0  0  0  0  0  0  0  0
   10.7581   -3.1233   19.4720 N   0  0  0  0  0  0  0  0  0  0  0  0
    9.9571   -4.0573   16.8866 C   0  0  0  0  0  0  0  0  0  0  0  0
    7.6213   -6.5618   16.0087 C   0  0  0  0  0  0  0  0  0  0  0  0
   10.8583   -2.6527   20.7222 C   0  0  0  0  0  0  0  0  0  0  0  0
   10.6412   -3.5089   21.7936 C   0  0  0  0  0  0  0  0  0  0  0  0
   10.4972   -3.8968   24.1589 C   0  0  0  0  0  0  0  0  0  0  0  0
    5.9260   -8.2736   16.5517 C   0  0  0  0  0  0  0  0  0  0  0  0
    3.8816   -9.1166   17.2493 C   0  0  0  0  0  0  0  0  0  0  0  0
   10.1297   -1.6575   23.2324 C   0  0  0  0  0  0  0  0  0  0  0  0
    9.4684   -1.6929   26.7263 F   0  0  0  0  0  0  0  0  0  0  0  0
    7.7963   -7.7906   17.9837 C   0  0  0  0  0  0  0  0  0  0  0  0
   10.5884   -3.0725   16.7902 O   0  0  0  0  0  0  0  0  0  0  0  0
   10.4323   -5.3494   20.3516 C   0  0  0  0  0  0  0  0  0  0  0  0
    7.1156   -7.5454   16.8218 C   0  0  0  0  0  0  0  0  0  0  0  0
   10.3885   -4.4388   19.2773 C   0  0  0  0  0  0  0  0  0  0  0  0
    4.5160   -9.3822   15.0841 C   0  0  0  0  0  0  0  0  0  0  0  0
  1  3  4  0
  1 24  4  0
  2  6  4  0
  2 15  4  0
  3  5  4  0
  3  6  4  0
  4 21  4  0
  4 29  4  0
  5 15  4  0
  5 28  1  0
  6 16  4  0
  7 18  4  0
  7 26  4  0
  8 18  1  0
  8 19  4  0
  8 22  4  0
  9 12  4  0
  9 19  4  0
 10 12  4  0
 10 22  4  0
 11 20  4  0
 11 21  4  0
 12 23  1  0
 13 20  4  0
 13 29  4  0
 14 17  4  0
 14 28  4  0
 15 25  2  0
 16 27  4  0
 17 18  4  0
 20 27  1  0
 24 27  4  0
 26 28  4  0
M  END
$$$$

 Created by Python create_sdf_string function

 29 33  0  0  0  0  0  0  0  0999 V2000
    8.8270   -7.0288   18.4251 C   0  0  0  0  0  0  0  0  0  0  0  0
    9.1576   -4.6236   15.8860 O   0  0  0  0  0  0  0  0  0  0  0  0
    9.1509   -5.9108   17.7177 C   0  0  0  0  0  0  0  0  0  0  0  0
    3.6373   -9.5349   16.0582 N   0  0  0  0  0  0  0  0  0  0  0  0
    9.9275   -4.8001   18.0438 N   0  0  0  0  0  0  0  0  0  0  0  0
    8.5908   -5.7425   16.4412 C   0  0  0  0  0  0  0  0  0  0  0  0
   10.5993   -4.8981   21.6068 C   0  0  0  0  0  0  0  0  0  0  0  0
   10.4258   -3.0106   23.0998 C   0  0  0  0  0  0  0  0  0  0  0  0
   10.2148   -3.4364   25.4200 C   0  0  0  0  0  0  0  0  0  0  0  0
    9.7853   -1.1840   24.4927 C   0  0  0  0  0  0  0  0  0  0  0  0
    5.0276   -8.5227   17.5352 C   0  0  0  0  0  0  0  0  0  0  0  0
    9.8187   -2.0895   25.5800 C   0  0  0  0  0  0  0  0  0  0  0  0
    5.6473   -8.7216   15.3158 C   0  0  0  0  0  0  0  0  0  0  0  0
   10.7581   -3.1233   19.4720 N   0  0  0  0  0  0  0  0  0  0  0  0
    9.9571   -4.0573   16.8866 C   0  0  0  0  0  0  0  0  0  0  0  0
    7.6213   -6.5618   16.0087 C   0  0  0  0  0  0  0  0  0  0  0  0
   10.8583   -2.6527   20.7222 C   0  0  0  0  0  0  0  0  0  0  0  0
   10.6412   -3.5089   21.7936 C   0  0  0  0  0  0  0  0  0  0  0  0
   10.4972   -3.8968   24.1589 C   0  0  0  0  0  0  0  0  0  0  0  0
    5.9260   -8.2736   16.5517 C   0  0  0  0  0  0  0  0  0  0  0  0
    3.8816   -9.1166   17.2493 C   0  0  0  0  0  0  0  0  0  0  0  0
   10.1297   -1.6575   23.2324 C   0  0  0  0  0  0  0  0  0  0  0  0
    9.4684   -1.6929   26.7263 F   0  0  0  0  0  0  0  0  0  0  0  0
    7.7963   -7.7906   17.9837 C   0  0  0  0  0  0  0  0  0  0  0  0
   10.5884   -3.0725   16.7902 O   0  0  0  0  0  0  0  0  0  0  0  0
   10.4323   -5.3494   20.3516 C   0  0  0  0  0  0  0  0  0  0  0  0
    7.1156   -7.5454   16.8218 C   0  0  0  0  0  0  0  0  0  0  0  0
   10.3885   -4.4388   19.2773 C   0  0  0  0  0  0  0  0  0  0  0  0
    4.5160   -9.3822   15.0841 C   0  0  0  0  0  0  0  0  0  0  0  0
  1  3  4  0
  1 24  4  0
  2  6  4  0
  2 15  4  0
  3  5  4  0
  3  6  4  0
  4 21  4  0
  4 29  4  0
  5 15  4  0
  5 28  1  0
  6 16  4  0
  7 18  4  0
  7 26  4  0
  8 18  1  0
  8 19  4  0
  8 22  4  0
  9 12  4  0
  9 19  4  0
 10 12  4  0
 10 22  4  0
 11 20  4  0
 11 21  4  0
 12 23  1  0
 13 20  4  0
 13 29  4  0
 14 17  4  0
 14 28  4  0
 15 25  2  0
 16 27  4  0
 17 18  4  0
 20 27  1  0
 24 27  4  0
 26 28  4  0
M  END
$$$$

 Created by Python create_sdf_string function

 29 33  0  0  0  0  0  0  0  0999 V2000
    8.8270   -7.0288   18.4251 C   0  0  0  0  0  0  0  0  0  0  0  0
    9.1576   -4.6236   15.8860 O   0  0  0  0  0  0  0  0  0  0  0  0
    9.1509   -5.9108   17.7177 C   0  0  0  0  0  0  0  0  0  0  0  0
    3.6373   -9.5349   16.0582 N   0  0  0  0  0  0  0  0  0  0  0  0
    9.9275   -4.8001   18.0438 N   0  0  0  0  0  0  0  0  0  0  0  0
    8.5908   -5.7425   16.4412 C   0  0  0  0  0  0  0  0  0  0  0  0
   10.5993   -4.8981   21.6068 C   0  0  0  0  0  0  0  0  0  0  0  0
   10.4258   -3.0106   23.0998 C   0  0  0  0  0  0  0  0  0  0  0  0
   10.2148   -3.4364   25.4200 C   0  0  0  0  0  0  0  0  0  0  0  0
    9.7853   -1.1840   24.4927 C   0  0  0  0  0  0  0  0  0  0  0  0
    5.0276   -8.5227   17.5352 C   0  0  0  0  0  0  0  0  0  0  0  0
    9.8187   -2.0895   25.5800 C   0  0  0  0  0  0  0  0  0  0  0  0
    5.6473   -8.7216   15.3158 C   0  0  0  0  0  0  0  0  0  0  0  0
   10.7581   -3.1233   19.4720 N   0  0  0  0  0  0  0  0  0  0  0  0
    9.9571   -4.0573   16.8866 C   0  0  0  0  0  0  0  0  0  0  0  0
    7.6213   -6.5618   16.0087 C   0  0  0  0  0  0  0  0  0  0  0  0
   10.8583   -2.6527   20.7222 C   0  0  0  0  0  0  0  0  0  0  0  0
   10.6412   -3.5089   21.7936 C   0  0  0  0  0  0  0  0  0  0  0  0
   10.4972   -3.8968   24.1589 C   0  0  0  0  0  0  0  0  0  0  0  0
    5.9260   -8.2736   16.5517 C   0  0  0  0  0  0  0  0  0  0  0  0
    3.8816   -9.1166   17.2493 C   0  0  0  0  0  0  0  0  0  0  0  0
   10.1297   -1.6575   23.2324 C   0  0  0  0  0  0  0  0  0  0  0  0
    9.4684   -1.6929   26.7263 F   0  0  0  0  0  0  0  0  0  0  0  0
    7.7963   -7.7906   17.9837 C   0  0  0  0  0  0  0  0  0  0  0  0
   10.5884   -3.0725   16.7902 O   0  0  0  0  0  0  0  0  0  0  0  0
   10.4323   -5.3494   20.3516 C   0  0  0  0  0  0  0  0  0  0  0  0
    7.1156   -7.5454   16.8218 C   0  0  0  0  0  0  0  0  0  0  0  0
   10.3885   -4.4388   19.2773 C   0  0  0  0  0  0  0  0  0  0  0  0
    4.5160   -9.3822   15.0841 C   0  0  0  0  0  0  0  0  0  0  0  0
  1  3  4  0
  1 24  4  0
  2  6  4  0
  2 15  4  0
  3  5  4  0
  3  6  4  0
  4 21  4  0
  4 29  4  0
  5 15  4  0
  5 28  1  0
  6 16  4  0
  7 18  4  0
  7 26  4  0
  8 18  1  0
  8 19  4  0
  8 22  4  0
  9 12  4  0
  9 19  4  0
 10 12  4  0
 10 22  4  0
 11 20  4  0
 11 21  4  0
 12 23  1  0
 13 20  4  0
 13 29  4  0
 14 17  4  0
 14 28  4  0
 15 25  2  0
 16 27  4  0
 17 18  4  0
 20 27  1  0
 24 27  4  0
 26 28  4  0
M  END
$$$$

 Created by Python create_sdf_string function

 29 33  0  0  0  0  0  0  0  0999 V2000
    8.8270   -7.0288   18.4251 C   0  0  0  0  0  0  0  0  0  0  0  0
    9.1576   -4.6236   15.8860 O   0  0  0  0  0  0  0  0  0  0  0  0
    9.1509   -5.9108   17.7177 C   0  0  0  0  0  0  0  0  0  0  0  0
    3.6373   -9.5349   16.0582 N   0  0  0  0  0  0  0  0  0  0  0  0
    9.9275   -4.8001   18.0438 N   0  0  0  0  0  0  0  0  0  0  0  0
    8.5908   -5.7425   16.4412 C   0  0  0  0  0  0  0  0  0  0  0  0
   10.5993   -4.8981   21.6068 C   0  0  0  0  0  0  0  0  0  0  0  0
   10.4258   -3.0106   23.0998 C   0  0  0  0  0  0  0  0  0  0  0  0
   10.2148   -3.4364   25.4200 C   0  0  0  0  0  0  0  0  0  0  0  0
    9.7853   -1.1840   24.4927 C   0  0  0  0  0  0  0  0  0  0  0  0
    5.0276   -8.5227   17.5352 C   0  0  0  0  0  0  0  0  0  0  0  0
    9.8187   -2.0895   25.5800 C   0  0  0  0  0  0  0  0  0  0  0  0
    5.6473   -8.7216   15.3158 C   0  0  0  0  0  0  0  0  0  0  0  0
   10.7581   -3.1233   19.4720 N   0  0  0  0  0  0  0  0  0  0  0  0
    9.9571   -4.0573   16.8866 C   0  0  0  0  0  0  0  0  0  0  0  0
    7.6213   -6.5618   16.0087 C   0  0  0  0  0  0  0  0  0  0  0  0
   10.8583   -2.6527   20.7222 C   0  0  0  0  0  0  0  0  0  0  0  0
   10.6412   -3.5089   21.7936 C   0  0  0  0  0  0  0  0  0  0  0  0
   10.4972   -3.8968   24.1589 C   0  0  0  0  0  0  0  0  0  0  0  0
    5.9260   -8.2736   16.5517 C   0  0  0  0  0  0  0  0  0  0  0  0
    3.8816   -9.1166   17.2493 C   0  0  0  0  0  0  0  0  0  0  0  0
   10.1297   -1.6575   23.2324 C   0  0  0  0  0  0  0  0  0  0  0  0
    9.4684   -1.6929   26.7263 F   0  0  0  0  0  0  0  0  0  0  0  0
    7.7963   -7.7906   17.9837 C   0  0  0  0  0  0  0  0  0  0  0  0
   10.5884   -3.0725   16.7902 O   0  0  0  0  0  0  0  0  0  0  0  0
   10.4323   -5.3494   20.3516 C   0  0  0  0  0  0  0  0  0  0  0  0
    7.1156   -7.5454   16.8218 C   0  0  0  0  0  0  0  0  0  0  0  0
   10.3885   -4.4388   19.2773 C   0  0  0  0  0  0  0  0  0  0  0  0
    4.5160   -9.3822   15.0841 C   0  0  0  0  0  0  0  0  0  0  0  0
  1  3  4  0
  1 24  4  0
  2  6  4  0
  2 15  4  0
  3  5  4  0
  3  6  4  0
  4 21  4  0
  4 29  4  0
  5 15  4  0
  5 28  1  0
  6 16  4  0
  7 18  4  0
  7 26  4  0
  8 18  1  0
  8 19  4  0
  8 22  4  0
  9 12  4  0
  9 19  4  0
 10 12  4  0
 10 22  4  0
 11 20  4  0
 11 21  4  0
 12 23  1  0
 13 20  4  0
 13 29  4  0
 14 17  4  0
 14 28  4  0
 15 25  2  0
 16 27  4  0
 17 18  4  0
 20 27  1  0
 24 27  4  0
 26 28  4  0
M  END
$$$$

 Created by Python create_sdf_string function

 29 33  0  0  0  0  0  0  0  0999 V2000
    8.8270   -7.0288   18.4251 C   0  0  0  0  0  0  0  0  0  0  0  0
    9.1576   -4.6236   15.8860 O   0  0  0  0  0  0  0  0  0  0  0  0
    9.1509   -5.9108   17.7177 C   0  0  0  0  0  0  0  0  0  0  0  0
    3.6373   -9.5349   16.0582 N   0  0  0  0  0  0  0  0  0  0  0  0
    9.9275   -4.8001   18.0438 N   0  0  0  0  0  0  0  0  0  0  0  0
    8.5908   -5.7425   16.4412 C   0  0  0  0  0  0  0  0  0  0  0  0
   10.5993   -4.8981   21.6068 C   0  0  0  0  0  0  0  0  0  0  0  0
   10.4258   -3.0106   23.0998 C   0  0  0  0  0  0  0  0  0  0  0  0
   10.2148   -3.4364   25.4200 C   0  0  0  0  0  0  0  0  0  0  0  0
    9.7853   -1.1840   24.4927 C   0  0  0  0  0  0  0  0  0  0  0  0
    5.0276   -8.5227   17.5352 C   0  0  0  0  0  0  0  0  0  0  0  0
    9.8187   -2.0895   25.5800 C   0  0  0  0  0  0  0  0  0  0  0  0
    5.6473   -8.7216   15.3158 C   0  0  0  0  0  0  0  0  0  0  0  0
   10.7581   -3.1233   19.4720 N   0  0  0  0  0  0  0  0  0  0  0  0
    9.9571   -4.0573   16.8866 C   0  0  0  0  0  0  0  0  0  0  0  0
    7.6213   -6.5618   16.0087 C   0  0  0  0  0  0  0  0  0  0  0  0
   10.8583   -2.6527   20.7222 C   0  0  0  0  0  0  0  0  0  0  0  0
   10.6412   -3.5089   21.7936 C   0  0  0  0  0  0  0  0  0  0  0  0
   10.4972   -3.8968   24.1589 C   0  0  0  0  0  0  0  0  0  0  0  0
    5.9260   -8.2736   16.5517 C   0  0  0  0  0  0  0  0  0  0  0  0
    3.8816   -9.1166   17.2493 C   0  0  0  0  0  0  0  0  0  0  0  0
   10.1297   -1.6575   23.2324 C   0  0  0  0  0  0  0  0  0  0  0  0
    9.4684   -1.6929   26.7263 F   0  0  0  0  0  0  0  0  0  0  0  0
    7.7963   -7.7906   17.9837 C   0  0  0  0  0  0  0  0  0  0  0  0
   10.5884   -3.0725   16.7902 O   0  0  0  0  0  0  0  0  0  0  0  0
   10.4323   -5.3494   20.3516 C   0  0  0  0  0  0  0  0  0  0  0  0
    7.1156   -7.5454   16.8218 C   0  0  0  0  0  0  0  0  0  0  0  0
   10.3885   -4.4388   19.2773 C   0  0  0  0  0  0  0  0  0  0  0  0
    4.5160   -9.3822   15.0841 C   0  0  0  0  0  0  0  0  0  0  0  0
  1  3  4  0
  1 24  4  0
  2  6  4  0
  2 15  4  0
  3  5  4  0
  3  6  4  0
  4 21  4  0
  4 29  4  0
  5 15  4  0
  5 28  1  0
  6 16  4  0
  7 18  4  0
  7 26  4  0
  8 18  1  0
  8 19  4  0
  8 22  4  0
  9 12  4  0
  9 19  4  0
 10 12  4  0
 10 22  4  0
 11 20  4  0
 11 21  4  0
 12 23  1  0
 13 20  4  0
 13 29  4  0
 14 17  4  0
 14 28  4  0
 15 25  2  0
 16 27  4  0
 17 18  4  0
 20 27  1  0
 24 27  4  0
 26 28  4  0
M  END
$$$$

 Created by Python create_sdf_string function

 29 33  0  0  0  0  0  0  0  0999 V2000
    8.8270   -7.0288   18.4251 C   0  0  0  0  0  0  0  0  0  0  0  0
    9.1576   -4.6236   15.8860 O   0  0  0  0  0  0  0  0  0  0  0  0
    9.1509   -5.9108   17.7177 C   0  0  0  0  0  0  0  0  0  0  0  0
    3.6373   -9.5349   16.0582 N   0  0  0  0  0  0  0  0  0  0  0  0
    9.9275   -4.8001   18.0438 N   0  0  0  0  0  0  0  0  0  0  0  0
    8.5908   -5.7425   16.4412 C   0  0  0  0  0  0  0  0  0  0  0  0
   10.5993   -4.8981   21.6068 C   0  0  0  0  0  0  0  0  0  0  0  0
   10.4258   -3.0106   23.0998 C   0  0  0  0  0  0  0  0  0  0  0  0
   10.2148   -3.4364   25.4200 C   0  0  0  0  0  0  0  0  0  0  0  0
    9.7853   -1.1840   24.4927 C   0  0  0  0  0  0  0  0  0  0  0  0
    5.0276   -8.5227   17.5352 C   0  0  0  0  0  0  0  0  0  0  0  0
    9.8187   -2.0895   25.5800 C   0  0  0  0  0  0  0  0  0  0  0  0
    5.6473   -8.7216   15.3158 C   0  0  0  0  0  0  0  0  0  0  0  0
   10.7581   -3.1233   19.4720 N   0  0  0  0  0  0  0  0  0  0  0  0
    9.9571   -4.0573   16.8866 C   0  0  0  0  0  0  0  0  0  0  0  0
    7.6213   -6.5618   16.0087 C   0  0  0  0  0  0  0  0  0  0  0  0
   10.8583   -2.6527   20.7222 C   0  0  0  0  0  0  0  0  0  0  0  0
   10.6412   -3.5089   21.7936 C   0  0  0  0  0  0  0  0  0  0  0  0
   10.4972   -3.8968   24.1589 C   0  0  0  0  0  0  0  0  0  0  0  0
    5.9260   -8.2736   16.5517 C   0  0  0  0  0  0  0  0  0  0  0  0
    3.8816   -9.1166   17.2493 C   0  0  0  0  0  0  0  0  0  0  0  0
   10.1297   -1.6575   23.2324 C   0  0  0  0  0  0  0  0  0  0  0  0
    9.4684   -1.6929   26.7263 F   0  0  0  0  0  0  0  0  0  0  0  0
    7.7963   -7.7906   17.9837 C   0  0  0  0  0  0  0  0  0  0  0  0
   10.5884   -3.0725   16.7902 O   0  0  0  0  0  0  0  0  0  0  0  0
   10.4323   -5.3494   20.3516 C   0  0  0  0  0  0  0  0  0  0  0  0
    7.1156   -7.5454   16.8218 C   0  0  0  0  0  0  0  0  0  0  0  0
   10.3885   -4.4388   19.2773 C   0  0  0  0  0  0  0  0  0  0  0  0
    4.5160   -9.3822   15.0841 C   0  0  0  0  0  0  0  0  0  0  0  0
  1  3  4  0
  1 24  4  0
  2  6  4  0
  2 15  4  0
  3  5  4  0
  3  6  4  0
  4 21  4  0
  4 29  4  0
  5 15  4  0
  5 28  1  0
  6 16  4  0
  7 18  4  0
  7 26  4  0
  8 18  1  0
  8 19  4  0
  8 22  4  0
  9 12  4  0
  9 19  4  0
 10 12  4  0
 10 22  4  0
 11 20  4  0
 11 21  4  0
 12 23  1  0
 13 20  4  0
 13 29  4  0
 14 17  4  0
 14 28  4  0
 15 25  2  0
 16 27  4  0
 17 18  4  0
 20 27  1  0
 24 27  4  0
 26 28  4  0
M  END
$$$$

 Created by Python create_sdf_string function

 29 33  0  0  0  0  0  0  0  0999 V2000
    8.8270   -7.0288   18.4251 C   0  0  0  0  0  0  0  0  0  0  0  0
    9.1576   -4.6236   15.8860 O   0  0  0  0  0  0  0  0  0  0  0  0
    9.1509   -5.9108   17.7177 C   0  0  0  0  0  0  0  0  0  0  0  0
    3.6373   -9.5349   16.0582 N   0  0  0  0  0  0  0  0  0  0  0  0
    9.9275   -4.8001   18.0438 N   0  0  0  0  0  0  0  0  0  0  0  0
    8.5908   -5.7425   16.4412 C   0  0  0  0  0  0  0  0  0  0  0  0
   10.5993   -4.8981   21.6068 C   0  0  0  0  0  0  0  0  0  0  0  0
   10.4258   -3.0106   23.0998 C   0  0  0  0  0  0  0  0  0  0  0  0
   10.2148   -3.4364   25.4200 C   0  0  0  0  0  0  0  0  0  0  0  0
    9.7853   -1.1840   24.4927 C   0  0  0  0  0  0  0  0  0  0  0  0
    5.0276   -8.5227   17.5352 C   0  0  0  0  0  0  0  0  0  0  0  0
    9.8187   -2.0895   25.5800 C   0  0  0  0  0  0  0  0  0  0  0  0
    5.6473   -8.7216   15.3158 C   0  0  0  0  0  0  0  0  0  0  0  0
   10.7581   -3.1233   19.4720 N   0  0  0  0  0  0  0  0  0  0  0  0
    9.9571   -4.0573   16.8866 C   0  0  0  0  0  0  0  0  0  0  0  0
    7.6213   -6.5618   16.0087 C   0  0  0  0  0  0  0  0  0  0  0  0
   10.8583   -2.6527   20.7222 C   0  0  0  0  0  0  0  0  0  0  0  0
   10.6412   -3.5089   21.7936 C   0  0  0  0  0  0  0  0  0  0  0  0
   10.4972   -3.8968   24.1589 C   0  0  0  0  0  0  0  0  0  0  0  0
    5.9260   -8.2736   16.5517 C   0  0  0  0  0  0  0  0  0  0  0  0
    3.8816   -9.1166   17.2493 C   0  0  0  0  0  0  0  0  0  0  0  0
   10.1297   -1.6575   23.2324 C   0  0  0  0  0  0  0  0  0  0  0  0
    9.4684   -1.6929   26.7263 F   0  0  0  0  0  0  0  0  0  0  0  0
    7.7963   -7.7906   17.9837 C   0  0  0  0  0  0  0  0  0  0  0  0
   10.5884   -3.0725   16.7902 O   0  0  0  0  0  0  0  0  0  0  0  0
   10.4323   -5.3494   20.3516 C   0  0  0  0  0  0  0  0  0  0  0  0
    7.1156   -7.5454   16.8218 C   0  0  0  0  0  0  0  0  0  0  0  0
   10.3885   -4.4388   19.2773 C   0  0  0  0  0  0  0  0  0  0  0  0
    4.5160   -9.3822   15.0841 C   0  0  0  0  0  0  0  0  0  0  0  0
  1  3  4  0
  1 24  4  0
  2  6  4  0
  2 15  4  0
  3  5  4  0
  3  6  4  0
  4 21  4  0
  4 29  4  0
  5 15  4  0
  5 28  1  0
  6 16  4  0
  7 18  4  0
  7 26  4  0
  8 18  1  0
  8 19  4  0
  8 22  4  0
  9 12  4  0
  9 19  4  0
 10 12  4  0
 10 22  4  0
 11 20  4  0
 11 21  4  0
 12 23  1  0
 13 20  4  0
 13 29  4  0
 14 17  4  0
 14 28  4  0
 15 25  2  0
 16 27  4  0
 17 18  4  0
 20 27  1  0
 24 27  4  0
 26 28  4  0
M  END
$$$$

 Created by Python create_sdf_string function

 29 33  0  0  0  0  0  0  0  0999 V2000
    8.8270   -7.0288   18.4251 C   0  0  0  0  0  0  0  0  0  0  0  0
    9.1576   -4.6236   15.8860 O   0  0  0  0  0  0  0  0  0  0  0  0
    9.1509   -5.9108   17.7177 C   0  0  0  0  0  0  0  0  0  0  0  0
    3.6373   -9.5349   16.0582 N   0  0  0  0  0  0  0  0  0  0  0  0
    9.9275   -4.8001   18.0438 N   0  0  0  0  0  0  0  0  0  0  0  0
    8.5908   -5.7425   16.4412 C   0  0  0  0  0  0  0  0  0  0  0  0
   10.5993   -4.8981   21.6068 C   0  0  0  0  0  0  0  0  0  0  0  0
   10.4258   -3.0106   23.0998 C   0  0  0  0  0  0  0  0  0  0  0  0
   10.2148   -3.4364   25.4200 C   0  0  0  0  0  0  0  0  0  0  0  0
    9.7853   -1.1840   24.4927 C   0  0  0  0  0  0  0  0  0  0  0  0
    5.0276   -8.5227   17.5352 C   0  0  0  0  0  0  0  0  0  0  0  0
    9.8187   -2.0895   25.5800 C   0  0  0  0  0  0  0  0  0  0  0  0
    5.6473   -8.7216   15.3158 C   0  0  0  0  0  0  0  0  0  0  0  0
   10.7581   -3.1233   19.4720 N   0  0  0  0  0  0  0  0  0  0  0  0
    9.9571   -4.0573   16.8866 C   0  0  0  0  0  0  0  0  0  0  0  0
    7.6213   -6.5618   16.0087 C   0  0  0  0  0  0  0  0  0  0  0  0
   10.8583   -2.6527   20.7222 C   0  0  0  0  0  0  0  0  0  0  0  0
   10.6412   -3.5089   21.7936 C   0  0  0  0  0  0  0  0  0  0  0  0
   10.4972   -3.8968   24.1589 C   0  0  0  0  0  0  0  0  0  0  0  0
    5.9260   -8.2736   16.5517 C   0  0  0  0  0  0  0  0  0  0  0  0
    3.8816   -9.1166   17.2493 C   0  0  0  0  0  0  0  0  0  0  0  0
   10.1297   -1.6575   23.2324 C   0  0  0  0  0  0  0  0  0  0  0  0
    9.4684   -1.6929   26.7263 F   0  0  0  0  0  0  0  0  0  0  0  0
    7.7963   -7.7906   17.9837 C   0  0  0  0  0  0  0  0  0  0  0  0
   10.5884   -3.0725   16.7902 O   0  0  0  0  0  0  0  0  0  0  0  0
   10.4323   -5.3494   20.3516 C   0  0  0  0  0  0  0  0  0  0  0  0
    7.1156   -7.5454   16.8218 C   0  0  0  0  0  0  0  0  0  0  0  0
   10.3885   -4.4388   19.2773 C   0  0  0  0  0  0  0  0  0  0  0  0
    4.5160   -9.3822   15.0841 C   0  0  0  0  0  0  0  0  0  0  0  0
  1  3  4  0
  1 24  4  0
  2  6  4  0
  2 15  4  0
  3  5  4  0
  3  6  4  0
  4 21  4  0
  4 29  4  0
  5 15  4  0
  5 28  1  0
  6 16  4  0
  7 18  4  0
  7 26  4  0
  8 18  1  0
  8 19  4  0
  8 22  4  0
  9 12  4  0
  9 19  4  0
 10 12  4  0
 10 22  4  0
 11 20  4  0
 11 21  4  0
 12 23  1  0
 13 20  4  0
 13 29  4  0
 14 17  4  0
 14 28  4  0
 15 25  2  0
 16 27  4  0
 17 18  4  0
 20 27  1  0
 24 27  4  0
 26 28  4  0
M  END
$$$$

 Created by Python create_sdf_string function

 29 33  0  0  0  0  0  0  0  0999 V2000
    8.8270   -7.0288   18.4251 C   0  0  0  0  0  0  0  0  0  0  0  0
    9.1576   -4.6236   15.8860 O   0  0  0  0  0  0  0  0  0  0  0  0
    9.1509   -5.9108   17.7177 C   0  0  0  0  0  0  0  0  0  0  0  0
    3.6373   -9.5349   16.0582 N   0  0  0  0  0  0  0  0  0  0  0  0
    9.9275   -4.8001   18.0438 N   0  0  0  0  0  0  0  0  0  0  0  0
    8.5908   -5.7425   16.4412 C   0  0  0  0  0  0  0  0  0  0  0  0
   10.5993   -4.8981   21.6068 C   0  0  0  0  0  0  0  0  0  0  0  0
   10.4258   -3.0106   23.0998 C   0  0  0  0  0  0  0  0  0  0  0  0
   10.2148   -3.4364   25.4200 C   0  0  0  0  0  0  0  0  0  0  0  0
    9.7853   -1.1840   24.4927 C   0  0  0  0  0  0  0  0  0  0  0  0
    5.0276   -8.5227   17.5352 C   0  0  0  0  0  0  0  0  0  0  0  0
    9.8187   -2.0895   25.5800 C   0  0  0  0  0  0  0  0  0  0  0  0
    5.6473   -8.7216   15.3158 C   0  0  0  0  0  0  0  0  0  0  0  0
   10.7581   -3.1233   19.4720 N   0  0  0  0  0  0  0  0  0  0  0  0
    9.9571   -4.0573   16.8866 C   0  0  0  0  0  0  0  0  0  0  0  0
    7.6213   -6.5618   16.0087 C   0  0  0  0  0  0  0  0  0  0  0  0
   10.8583   -2.6527   20.7222 C   0  0  0  0  0  0  0  0  0  0  0  0
   10.6412   -3.5089   21.7936 C   0  0  0  0  0  0  0  0  0  0  0  0
   10.4972   -3.8968   24.1589 C   0  0  0  0  0  0  0  0  0  0  0  0
    5.9260   -8.2736   16.5517 C   0  0  0  0  0  0  0  0  0  0  0  0
    3.8816   -9.1166   17.2493 C   0  0  0  0  0  0  0  0  0  0  0  0
   10.1297   -1.6575   23.2324 C   0  0  0  0  0  0  0  0  0  0  0  0
    9.4684   -1.6929   26.7263 F   0  0  0  0  0  0  0  0  0  0  0  0
    7.7963   -7.7906   17.9837 C   0  0  0  0  0  0  0  0  0  0  0  0
   10.5884   -3.0725   16.7902 O   0  0  0  0  0  0  0  0  0  0  0  0
   10.4323   -5.3494   20.3516 C   0  0  0  0  0  0  0  0  0  0  0  0
    7.1156   -7.5454   16.8218 C   0  0  0  0  0  0  0  0  0  0  0  0
   10.3885   -4.4388   19.2773 C   0  0  0  0  0  0  0  0  0  0  0  0
    4.5160   -9.3822   15.0841 C   0  0  0  0  0  0  0  0  0  0  0  0
  1  3  4  0
  1 24  4  0
  2  6  4  0
  2 15  4  0
  3  5  4  0
  3  6  4  0
  4 21  4  0
  4 29  4  0
  5 15  4  0
  5 28  1  0
  6 16  4  0
  7 18  4  0
  7 26  4  0
  8 18  1  0
  8 19  4  0
  8 22  4  0
  9 12  4  0
  9 19  4  0
 10 12  4  0
 10 22  4  0
 11 20  4  0
 11 21  4  0
 12 23  1  0
 13 20  4  0
 13 29  4  0
 14 17  4  0
 14 28  4  0
 15 25  2  0
 16 27  4  0
 17 18  4  0
 20 27  1  0
 24 27  4  0
 26 28  4  0
M  END
$$$$

 Created by Python create_sdf_string function

 29 33  0  0  0  0  0  0  0  0999 V2000
    8.8270   -7.0288   18.4251 C   0  0  0  0  0  0  0  0  0  0  0  0
    9.1576   -4.6236   15.8860 O   0  0  0  0  0  0  0  0  0  0  0  0
    9.1509   -5.9108   17.7177 C   0  0  0  0  0  0  0  0  0  0  0  0
    3.6373   -9.5349   16.0582 N   0  0  0  0  0  0  0  0  0  0  0  0
    9.9275   -4.8001   18.0438 N   0  0  0  0  0  0  0  0  0  0  0  0
    8.5908   -5.7425   16.4412 C   0  0  0  0  0  0  0  0  0  0  0  0
   10.5993   -4.8981   21.6068 C   0  0  0  0  0  0  0  0  0  0  0  0
   10.4258   -3.0106   23.0998 C   0  0  0  0  0  0  0  0  0  0  0  0
   10.2148   -3.4364   25.4200 C   0  0  0  0  0  0  0  0  0  0  0  0
    9.7853   -1.1840   24.4927 C   0  0  0  0  0  0  0  0  0  0  0  0
    5.0276   -8.5227   17.5352 C   0  0  0  0  0  0  0  0  0  0  0  0
    9.8187   -2.0895   25.5800 C   0  0  0  0  0  0  0  0  0  0  0  0
    5.6473   -8.7216   15.3158 C   0  0  0  0  0  0  0  0  0  0  0  0
   10.7581   -3.1233   19.4720 N   0  0  0  0  0  0  0  0  0  0  0  0
    9.9571   -4.0573   16.8866 C   0  0  0  0  0  0  0  0  0  0  0  0
    7.6213   -6.5618   16.0087 C   0  0  0  0  0  0  0  0  0  0  0  0
   10.8583   -2.6527   20.7222 C   0  0  0  0  0  0  0  0  0  0  0  0
   10.6412   -3.5089   21.7936 C   0  0  0  0  0  0  0  0  0  0  0  0
   10.4972   -3.8968   24.1589 C   0  0  0  0  0  0  0  0  0  0  0  0
    5.9260   -8.2736   16.5517 C   0  0  0  0  0  0  0  0  0  0  0  0
    3.8816   -9.1166   17.2493 C   0  0  0  0  0  0  0  0  0  0  0  0
   10.1297   -1.6575   23.2324 C   0  0  0  0  0  0  0  0  0  0  0  0
    9.4684   -1.6929   26.7263 F   0  0  0  0  0  0  0  0  0  0  0  0
    7.7963   -7.7906   17.9837 C   0  0  0  0  0  0  0  0  0  0  0  0
   10.5884   -3.0725   16.7902 O   0  0  0  0  0  0  0  0  0  0  0  0
   10.4323   -5.3494   20.3516 C   0  0  0  0  0  0  0  0  0  0  0  0
    7.1156   -7.5454   16.8218 C   0  0  0  0  0  0  0  0  0  0  0  0
   10.3885   -4.4388   19.2773 C   0  0  0  0  0  0  0  0  0  0  0  0
    4.5160   -9.3822   15.0841 C   0  0  0  0  0  0  0  0  0  0  0  0
  1  3  4  0
  1 24  4  0
  2  6  4  0
  2 15  4  0
  3  5  4  0
  3  6  4  0
  4 21  4  0
  4 29  4  0
  5 15  4  0
  5 28  1  0
  6 16  4  0
  7 18  4  0
  7 26  4  0
  8 18  1  0
  8 19  4  0
  8 22  4  0
  9 12  4  0
  9 19  4  0
 10 12  4  0
 10 22  4  0
 11 20  4  0
 11 21  4  0
 12 23  1  0
 13 20  4  0
 13 29  4  0
 14 17  4  0
 14 28  4  0
 15 25  2  0
 16 27  4  0
 17 18  4  0
 20 27  1  0
 24 27  4  0
 26 28  4  0
M  END
$$$$

 Created by Python create_sdf_string function

 29 33  0  0  0  0  0  0  0  0999 V2000
    8.8270   -7.0288   18.4251 C   0  0  0  0  0  0  0  0  0  0  0  0
    9.1576   -4.6236   15.8860 O   0  0  0  0  0  0  0  0  0  0  0  0
    9.1509   -5.9108   17.7177 C   0  0  0  0  0  0  0  0  0  0  0  0
    3.6373   -9.5349   16.0582 N   0  0  0  0  0  0  0  0  0  0  0  0
    9.9275   -4.8001   18.0438 N   0  0  0  0  0  0  0  0  0  0  0  0
    8.5908   -5.7425   16.4412 C   0  0  0  0  0  0  0  0  0  0  0  0
   10.5993   -4.8981   21.6068 C   0  0  0  0  0  0  0  0  0  0  0  0
   10.4258   -3.0106   23.0998 C   0  0  0  0  0  0  0  0  0  0  0  0
   10.2148   -3.4364   25.4200 C   0  0  0  0  0  0  0  0  0  0  0  0
    9.7853   -1.1840   24.4927 C   0  0  0  0  0  0  0  0  0  0  0  0
    5.0276   -8.5227   17.5352 C   0  0  0  0  0  0  0  0  0  0  0  0
    9.8187   -2.0895   25.5800 C   0  0  0  0  0  0  0  0  0  0  0  0
    5.6473   -8.7216   15.3158 C   0  0  0  0  0  0  0  0  0  0  0  0
   10.7581   -3.1233   19.4720 N   0  0  0  0  0  0  0  0  0  0  0  0
    9.9571   -4.0573   16.8866 C   0  0  0  0  0  0  0  0  0  0  0  0
    7.6213   -6.5618   16.0087 C   0  0  0  0  0  0  0  0  0  0  0  0
   10.8583   -2.6527   20.7222 C   0  0  0  0  0  0  0  0  0  0  0  0
   10.6412   -3.5089   21.7936 C   0  0  0  0  0  0  0  0  0  0  0  0
   10.4972   -3.8968   24.1589 C   0  0  0  0  0  0  0  0  0  0  0  0
    5.9260   -8.2736   16.5517 C   0  0  0  0  0  0  0  0  0  0  0  0
    3.8816   -9.1166   17.2493 C   0  0  0  0  0  0  0  0  0  0  0  0
   10.1297   -1.6575   23.2324 C   0  0  0  0  0  0  0  0  0  0  0  0
    9.4684   -1.6929   26.7263 F   0  0  0  0  0  0  0  0  0  0  0  0
    7.7963   -7.7906   17.9837 C   0  0  0  0  0  0  0  0  0  0  0  0
   10.5884   -3.0725   16.7902 O   0  0  0  0  0  0  0  0  0  0  0  0
   10.4323   -5.3494   20.3516 C   0  0  0  0  0  0  0  0  0  0  0  0
    7.1156   -7.5454   16.8218 C   0  0  0  0  0  0  0  0  0  0  0  0
   10.3885   -4.4388   19.2773 C   0  0  0  0  0  0  0  0  0  0  0  0
    4.5160   -9.3822   15.0841 C   0  0  0  0  0  0  0  0  0  0  0  0
  1  3  4  0
  1 24  4  0
  2  6  4  0
  2 15  4  0
  3  5  4  0
  3  6  4  0
  4 21  4  0
  4 29  4  0
  5 15  4  0
  5 28  1  0
  6 16  4  0
  7 18  4  0
  7 26  4  0
  8 18  1  0
  8 19  4  0
  8 22  4  0
  9 12  4  0
  9 19  4  0
 10 12  4  0
 10 22  4  0
 11 20  4  0
 11 21  4  0
 12 23  1  0
 13 20  4  0
 13 29  4  0
 14 17  4  0
 14 28  4  0
 15 25  2  0
 16 27  4  0
 17 18  4  0
 20 27  1  0
 24 27  4  0
 26 28  4  0
M  END
$$$$

 Created by Python create_sdf_string function

 29 33  0  0  0  0  0  0  0  0999 V2000
    8.8270   -7.0288   18.4251 C   0  0  0  0  0  0  0  0  0  0  0  0
    9.1576   -4.6236   15.8860 O   0  0  0  0  0  0  0  0  0  0  0  0
    9.1509   -5.9108   17.7177 C   0  0  0  0  0  0  0  0  0  0  0  0
    3.6373   -9.5349   16.0582 N   0  0  0  0  0  0  0  0  0  0  0  0
    9.9275   -4.8001   18.0438 N   0  0  0  0  0  0  0  0  0  0  0  0
    8.5908   -5.7425   16.4412 C   0  0  0  0  0  0  0  0  0  0  0  0
   10.5993   -4.8981   21.6068 C   0  0  0  0  0  0  0  0  0  0  0  0
   10.4258   -3.0106   23.0998 C   0  0  0  0  0  0  0  0  0  0  0  0
   10.2148   -3.4364   25.4200 C   0  0  0  0  0  0  0  0  0  0  0  0
    9.7853   -1.1840   24.4927 C   0  0  0  0  0  0  0  0  0  0  0  0
    5.0276   -8.5227   17.5352 C   0  0  0  0  0  0  0  0  0  0  0  0
    9.8187   -2.0895   25.5800 C   0  0  0  0  0  0  0  0  0  0  0  0
    5.6473   -8.7216   15.3158 C   0  0  0  0  0  0  0  0  0  0  0  0
   10.7581   -3.1233   19.4720 N   0  0  0  0  0  0  0  0  0  0  0  0
    9.9571   -4.0573   16.8866 C   0  0  0  0  0  0  0  0  0  0  0  0
    7.6213   -6.5618   16.0087 C   0  0  0  0  0  0  0  0  0  0  0  0
   10.8583   -2.6527   20.7222 C   0  0  0  0  0  0  0  0  0  0  0  0
   10.6412   -3.5089   21.7936 C   0  0  0  0  0  0  0  0  0  0  0  0
   10.4972   -3.8968   24.1589 C   0  0  0  0  0  0  0  0  0  0  0  0
    5.9260   -8.2736   16.5517 C   0  0  0  0  0  0  0  0  0  0  0  0
    3.8816   -9.1166   17.2493 C   0  0  0  0  0  0  0  0  0  0  0  0
   10.1297   -1.6575   23.2324 C   0  0  0  0  0  0  0  0  0  0  0  0
    9.4684   -1.6929   26.7263 F   0  0  0  0  0  0  0  0  0  0  0  0
    7.7963   -7.7906   17.9837 C   0  0  0  0  0  0  0  0  0  0  0  0
   10.5884   -3.0725   16.7902 O   0  0  0  0  0  0  0  0  0  0  0  0
   10.4323   -5.3494   20.3516 C   0  0  0  0  0  0  0  0  0  0  0  0
    7.1156   -7.5454   16.8218 C   0  0  0  0  0  0  0  0  0  0  0  0
   10.3885   -4.4388   19.2773 C   0  0  0  0  0  0  0  0  0  0  0  0
    4.5160   -9.3822   15.0841 C   0  0  0  0  0  0  0  0  0  0  0  0
  1  3  4  0
  1 24  4  0
  2  6  4  0
  2 15  4  0
  3  5  4  0
  3  6  4  0
  4 21  4  0
  4 29  4  0
  5 15  4  0
  5 28  1  0
  6 16  4  0
  7 18  4  0
  7 26  4  0
  8 18  1  0
  8 19  4  0
  8 22  4  0
  9 12  4  0
  9 19  4  0
 10 12  4  0
 10 22  4  0
 11 20  4  0
 11 21  4  0
 12 23  1  0
 13 20  4  0
 13 29  4  0
 14 17  4  0
 14 28  4  0
 15 25  2  0
 16 27  4  0
 17 18  4  0
 20 27  1  0
 24 27  4  0
 26 28  4  0
M  END
$$$$

 Created by Python create_sdf_string function

 29 33  0  0  0  0  0  0  0  0999 V2000
    8.8270   -7.0288   18.4251 C   0  0  0  0  0  0  0  0  0  0  0  0
    9.1576   -4.6236   15.8860 O   0  0  0  0  0  0  0  0  0  0  0  0
    9.1509   -5.9108   17.7177 C   0  0  0  0  0  0  0  0  0  0  0  0
    3.6373   -9.5349   16.0582 N   0  0  0  0  0  0  0  0  0  0  0  0
    9.9275   -4.8001   18.0438 N   0  0  0  0  0  0  0  0  0  0  0  0
    8.5908   -5.7425   16.4412 C   0  0  0  0  0  0  0  0  0  0  0  0
   10.5993   -4.8981   21.6068 C   0  0  0  0  0  0  0  0  0  0  0  0
   10.4258   -3.0106   23.0998 C   0  0  0  0  0  0  0  0  0  0  0  0
   10.2148   -3.4364   25.4200 C   0  0  0  0  0  0  0  0  0  0  0  0
    9.7853   -1.1840   24.4927 C   0  0  0  0  0  0  0  0  0  0  0  0
    5.0276   -8.5227   17.5352 C   0  0  0  0  0  0  0  0  0  0  0  0
    9.8187   -2.0895   25.5800 C   0  0  0  0  0  0  0  0  0  0  0  0
    5.6473   -8.7216   15.3158 C   0  0  0  0  0  0  0  0  0  0  0  0
   10.7581   -3.1233   19.4720 N   0  0  0  0  0  0  0  0  0  0  0  0
    9.9571   -4.0573   16.8866 C   0  0  0  0  0  0  0  0  0  0  0  0
    7.6213   -6.5618   16.0087 C   0  0  0  0  0  0  0  0  0  0  0  0
   10.8583   -2.6527   20.7222 C   0  0  0  0  0  0  0  0  0  0  0  0
   10.6412   -3.5089   21.7936 C   0  0  0  0  0  0  0  0  0  0  0  0
   10.4972   -3.8968   24.1589 C   0  0  0  0  0  0  0  0  0  0  0  0
    5.9260   -8.2736   16.5517 C   0  0  0  0  0  0  0  0  0  0  0  0
    3.8816   -9.1166   17.2493 C   0  0  0  0  0  0  0  0  0  0  0  0
   10.1297   -1.6575   23.2324 C   0  0  0  0  0  0  0  0  0  0  0  0
    9.4684   -1.6929   26.7263 F   0  0  0  0  0  0  0  0  0  0  0  0
    7.7963   -7.7906   17.9837 C   0  0  0  0  0  0  0  0  0  0  0  0
   10.5884   -3.0725   16.7902 O   0  0  0  0  0  0  0  0  0  0  0  0
   10.4323   -5.3494   20.3516 C   0  0  0  0  0  0  0  0  0  0  0  0
    7.1156   -7.5454   16.8218 C   0  0  0  0  0  0  0  0  0  0  0  0
   10.3885   -4.4388   19.2773 C   0  0  0  0  0  0  0  0  0  0  0  0
    4.5160   -9.3822   15.0841 C   0  0  0  0  0  0  0  0  0  0  0  0
  1  3  4  0
  1 24  4  0
  2  6  4  0
  2 15  4  0
  3  5  4  0
  3  6  4  0
  4 21  4  0
  4 29  4  0
  5 15  4  0
  5 28  1  0
  6 16  4  0
  7 18  4  0
  7 26  4  0
  8 18  1  0
  8 19  4  0
  8 22  4  0
  9 12  4  0
  9 19  4  0
 10 12  4  0
 10 22  4  0
 11 20  4  0
 11 21  4  0
 12 23  1  0
 13 20  4  0
 13 29  4  0
 14 17  4  0
 14 28  4  0
 15 25  2  0
 16 27  4  0
 17 18  4  0
 20 27  1  0
 24 27  4  0
 26 28  4  0
M  END
$$$$

 Created by Python create_sdf_string function

 29 33  0  0  0  0  0  0  0  0999 V2000
    8.8270   -7.0288   18.4251 C   0  0  0  0  0  0  0  0  0  0  0  0
    9.1576   -4.6236   15.8860 O   0  0  0  0  0  0  0  0  0  0  0  0
    9.1509   -5.9108   17.7177 C   0  0  0  0  0  0  0  0  0  0  0  0
    3.6373   -9.5349   16.0582 N   0  0  0  0  0  0  0  0  0  0  0  0
    9.9275   -4.8001   18.0438 N   0  0  0  0  0  0  0  0  0  0  0  0
    8.5908   -5.7425   16.4412 C   0  0  0  0  0  0  0  0  0  0  0  0
   10.5993   -4.8981   21.6068 C   0  0  0  0  0  0  0  0  0  0  0  0
   10.4258   -3.0106   23.0998 C   0  0  0  0  0  0  0  0  0  0  0  0
   10.2148   -3.4364   25.4200 C   0  0  0  0  0  0  0  0  0  0  0  0
    9.7853   -1.1840   24.4927 C   0  0  0  0  0  0  0  0  0  0  0  0
    5.0276   -8.5227   17.5352 C   0  0  0  0  0  0  0  0  0  0  0  0
    9.8187   -2.0895   25.5800 C   0  0  0  0  0  0  0  0  0  0  0  0
    5.6473   -8.7216   15.3158 C   0  0  0  0  0  0  0  0  0  0  0  0
   10.7581   -3.1233   19.4720 N   0  0  0  0  0  0  0  0  0  0  0  0
    9.9571   -4.0573   16.8866 C   0  0  0  0  0  0  0  0  0  0  0  0
    7.6213   -6.5618   16.0087 C   0  0  0  0  0  0  0  0  0  0  0  0
   10.8583   -2.6527   20.7222 C   0  0  0  0  0  0  0  0  0  0  0  0
   10.6412   -3.5089   21.7936 C   0  0  0  0  0  0  0  0  0  0  0  0
   10.4972   -3.8968   24.1589 C   0  0  0  0  0  0  0  0  0  0  0  0
    5.9260   -8.2736   16.5517 C   0  0  0  0  0  0  0  0  0  0  0  0
    3.8816   -9.1166   17.2493 C   0  0  0  0  0  0  0  0  0  0  0  0
   10.1297   -1.6575   23.2324 C   0  0  0  0  0  0  0  0  0  0  0  0
    9.4684   -1.6929   26.7263 F   0  0  0  0  0  0  0  0  0  0  0  0
    7.7963   -7.7906   17.9837 C   0  0  0  0  0  0  0  0  0  0  0  0
   10.5884   -3.0725   16.7902 O   0  0  0  0  0  0  0  0  0  0  0  0
   10.4323   -5.3494   20.3516 C   0  0  0  0  0  0  0  0  0  0  0  0
    7.1156   -7.5454   16.8218 C   0  0  0  0  0  0  0  0  0  0  0  0
   10.3885   -4.4388   19.2773 C   0  0  0  0  0  0  0  0  0  0  0  0
    4.5160   -9.3822   15.0841 C   0  0  0  0  0  0  0  0  0  0  0  0
  1  3  4  0
  1 24  4  0
  2  6  4  0
  2 15  4  0
  3  5  4  0
  3  6  4  0
  4 21  4  0
  4 29  4  0
  5 15  4  0
  5 28  1  0
  6 16  4  0
  7 18  4  0
  7 26  4  0
  8 18  1  0
  8 19  4  0
  8 22  4  0
  9 12  4  0
  9 19  4  0
 10 12  4  0
 10 22  4  0
 11 20  4  0
 11 21  4  0
 12 23  1  0
 13 20  4  0
 13 29  4  0
 14 17  4  0
 14 28  4  0
 15 25  2  0
 16 27  4  0
 17 18  4  0
 20 27  1  0
 24 27  4  0
 26 28  4  0
M  END
$$$$

 Created by Python create_sdf_string function

 29 33  0  0  0  0  0  0  0  0999 V2000
    8.8270   -7.0288   18.4251 C   0  0  0  0  0  0  0  0  0  0  0  0
    9.1576   -4.6236   15.8860 O   0  0  0  0  0  0  0  0  0  0  0  0
    9.1509   -5.9108   17.7177 C   0  0  0  0  0  0  0  0  0  0  0  0
    3.6373   -9.5349   16.0582 N   0  0  0  0  0  0  0  0  0  0  0  0
    9.9275   -4.8001   18.0438 N   0  0  0  0  0  0  0  0  0  0  0  0
    8.5908   -5.7425   16.4412 C   0  0  0  0  0  0  0  0  0  0  0  0
   10.5993   -4.8981   21.6068 C   0  0  0  0  0  0  0  0  0  0  0  0
   10.4258   -3.0106   23.0998 C   0  0  0  0  0  0  0  0  0  0  0  0
   10.2148   -3.4364   25.4200 C   0  0  0  0  0  0  0  0  0  0  0  0
    9.7853   -1.1840   24.4927 C   0  0  0  0  0  0  0  0  0  0  0  0
    5.0276   -8.5227   17.5352 C   0  0  0  0  0  0  0  0  0  0  0  0
    9.8187   -2.0895   25.5800 C   0  0  0  0  0  0  0  0  0  0  0  0
    5.6473   -8.7216   15.3158 C   0  0  0  0  0  0  0  0  0  0  0  0
   10.7581   -3.1233   19.4720 N   0  0  0  0  0  0  0  0  0  0  0  0
    9.9571   -4.0573   16.8866 C   0  0  0  0  0  0  0  0  0  0  0  0
    7.6213   -6.5618   16.0087 C   0  0  0  0  0  0  0  0  0  0  0  0
   10.8583   -2.6527   20.7222 C   0  0  0  0  0  0  0  0  0  0  0  0
   10.6412   -3.5089   21.7936 C   0  0  0  0  0  0  0  0  0  0  0  0
   10.4972   -3.8968   24.1589 C   0  0  0  0  0  0  0  0  0  0  0  0
    5.9260   -8.2736   16.5517 C   0  0  0  0  0  0  0  0  0  0  0  0
    3.8816   -9.1166   17.2493 C   0  0  0  0  0  0  0  0  0  0  0  0
   10.1297   -1.6575   23.2324 C   0  0  0  0  0  0  0  0  0  0  0  0
    9.4684   -1.6929   26.7263 F   0  0  0  0  0  0  0  0  0  0  0  0
    7.7963   -7.7906   17.9837 C   0  0  0  0  0  0  0  0  0  0  0  0
   10.5884   -3.0725   16.7902 O   0  0  0  0  0  0  0  0  0  0  0  0
   10.4323   -5.3494   20.3516 C   0  0  0  0  0  0  0  0  0  0  0  0
    7.1156   -7.5454   16.8218 C   0  0  0  0  0  0  0  0  0  0  0  0
   10.3885   -4.4388   19.2773 C   0  0  0  0  0  0  0  0  0  0  0  0
    4.5160   -9.3822   15.0841 C   0  0  0  0  0  0  0  0  0  0  0  0
  1  3  4  0
  1 24  4  0
  2  6  4  0
  2 15  4  0
  3  5  4  0
  3  6  4  0
  4 21  4  0
  4 29  4  0
  5 15  4  0
  5 28  1  0
  6 16  4  0
  7 18  4  0
  7 26  4  0
  8 18  1  0
  8 19  4  0
  8 22  4  0
  9 12  4  0
  9 19  4  0
 10 12  4  0
 10 22  4  0
 11 20  4  0
 11 21  4  0
 12 23  1  0
 13 20  4  0
 13 29  4  0
 14 17  4  0
 14 28  4  0
 15 25  2  0
 16 27  4  0
 17 18  4  0
 20 27  1  0
 24 27  4  0
 26 28  4  0
M  END
$$$$

 Created by Python create_sdf_string function

 29 33  0  0  0  0  0  0  0  0999 V2000
    8.8270   -7.0288   18.4251 C   0  0  0  0  0  0  0  0  0  0  0  0
    9.1576   -4.6236   15.8860 O   0  0  0  0  0  0  0  0  0  0  0  0
    9.1509   -5.9108   17.7177 C   0  0  0  0  0  0  0  0  0  0  0  0
    3.6373   -9.5349   16.0582 N   0  0  0  0  0  0  0  0  0  0  0  0
    9.9275   -4.8001   18.0438 N   0  0  0  0  0  0  0  0  0  0  0  0
    8.5908   -5.7425   16.4412 C   0  0  0  0  0  0  0  0  0  0  0  0
   10.5993   -4.8981   21.6068 C   0  0  0  0  0  0  0  0  0  0  0  0
   10.4258   -3.0106   23.0998 C   0  0  0  0  0  0  0  0  0  0  0  0
   10.2148   -3.4364   25.4200 C   0  0  0  0  0  0  0  0  0  0  0  0
    9.7853   -1.1840   24.4927 C   0  0  0  0  0  0  0  0  0  0  0  0
    5.0276   -8.5227   17.5352 C   0  0  0  0  0  0  0  0  0  0  0  0
    9.8187   -2.0895   25.5800 C   0  0  0  0  0  0  0  0  0  0  0  0
    5.6473   -8.7216   15.3158 C   0  0  0  0  0  0  0  0  0  0  0  0
   10.7581   -3.1233   19.4720 N   0  0  0  0  0  0  0  0  0  0  0  0
    9.9571   -4.0573   16.8866 C   0  0  0  0  0  0  0  0  0  0  0  0
    7.6213   -6.5618   16.0087 C   0  0  0  0  0  0  0  0  0  0  0  0
   10.8583   -2.6527   20.7222 C   0  0  0  0  0  0  0  0  0  0  0  0
   10.6412   -3.5089   21.7936 C   0  0  0  0  0  0  0  0  0  0  0  0
   10.4972   -3.8968   24.1589 C   0  0  0  0  0  0  0  0  0  0  0  0
    5.9260   -8.2736   16.5517 C   0  0  0  0  0  0  0  0  0  0  0  0
    3.8816   -9.1166   17.2493 C   0  0  0  0  0  0  0  0  0  0  0  0
   10.1297   -1.6575   23.2324 C   0  0  0  0  0  0  0  0  0  0  0  0
    9.4684   -1.6929   26.7263 F   0  0  0  0  0  0  0  0  0  0  0  0
    7.7963   -7.7906   17.9837 C   0  0  0  0  0  0  0  0  0  0  0  0
   10.5884   -3.0725   16.7902 O   0  0  0  0  0  0  0  0  0  0  0  0
   10.4323   -5.3494   20.3516 C   0  0  0  0  0  0  0  0  0  0  0  0
    7.1156   -7.5454   16.8218 C   0  0  0  0  0  0  0  0  0  0  0  0
   10.3885   -4.4388   19.2773 C   0  0  0  0  0  0  0  0  0  0  0  0
    4.5160   -9.3822   15.0841 C   0  0  0  0  0  0  0  0  0  0  0  0
  1  3  4  0
  1 24  4  0
  2  6  4  0
  2 15  4  0
  3  5  4  0
  3  6  4  0
  4 21  4  0
  4 29  4  0
  5 15  4  0
  5 28  1  0
  6 16  4  0
  7 18  4  0
  7 26  4  0
  8 18  1  0
  8 19  4  0
  8 22  4  0
  9 12  4  0
  9 19  4  0
 10 12  4  0
 10 22  4  0
 11 20  4  0
 11 21  4  0
 12 23  1  0
 13 20  4  0
 13 29  4  0
 14 17  4  0
 14 28  4  0
 15 25  2  0
 16 27  4  0
 17 18  4  0
 20 27  1  0
 24 27  4  0
 26 28  4  0
M  END
$$$$

 Created by Python create_sdf_string function

 29 33  0  0  0  0  0  0  0  0999 V2000
    8.8270   -7.0288   18.4251 C   0  0  0  0  0  0  0  0  0  0  0  0
    9.1576   -4.6236   15.8860 O   0  0  0  0  0  0  0  0  0  0  0  0
    9.1509   -5.9108   17.7177 C   0  0  0  0  0  0  0  0  0  0  0  0
    3.6373   -9.5349   16.0582 N   0  0  0  0  0  0  0  0  0  0  0  0
    9.9275   -4.8001   18.0438 N   0  0  0  0  0  0  0  0  0  0  0  0
    8.5908   -5.7425   16.4412 C   0  0  0  0  0  0  0  0  0  0  0  0
   10.5993   -4.8981   21.6068 C   0  0  0  0  0  0  0  0  0  0  0  0
   10.4258   -3.0106   23.0998 C   0  0  0  0  0  0  0  0  0  0  0  0
   10.2148   -3.4364   25.4200 C   0  0  0  0  0  0  0  0  0  0  0  0
    9.7853   -1.1840   24.4927 C   0  0  0  0  0  0  0  0  0  0  0  0
    5.0276   -8.5227   17.5352 C   0  0  0  0  0  0  0  0  0  0  0  0
    9.8187   -2.0895   25.5800 C   0  0  0  0  0  0  0  0  0  0  0  0
    5.6473   -8.7216   15.3158 C   0  0  0  0  0  0  0  0  0  0  0  0
   10.7581   -3.1233   19.4720 N   0  0  0  0  0  0  0  0  0  0  0  0
    9.9571   -4.0573   16.8866 C   0  0  0  0  0  0  0  0  0  0  0  0
    7.6213   -6.5618   16.0087 C   0  0  0  0  0  0  0  0  0  0  0  0
   10.8583   -2.6527   20.7222 C   0  0  0  0  0  0  0  0  0  0  0  0
   10.6412   -3.5089   21.7936 C   0  0  0  0  0  0  0  0  0  0  0  0
   10.4972   -3.8968   24.1589 C   0  0  0  0  0  0  0  0  0  0  0  0
    5.9260   -8.2736   16.5517 C   0  0  0  0  0  0  0  0  0  0  0  0
    3.8816   -9.1166   17.2493 C   0  0  0  0  0  0  0  0  0  0  0  0
   10.1297   -1.6575   23.2324 C   0  0  0  0  0  0  0  0  0  0  0  0
    9.4684   -1.6929   26.7263 F   0  0  0  0  0  0  0  0  0  0  0  0
    7.7963   -7.7906   17.9837 C   0  0  0  0  0  0  0  0  0  0  0  0
   10.5884   -3.0725   16.7902 O   0  0  0  0  0  0  0  0  0  0  0  0
   10.4323   -5.3494   20.3516 C   0  0  0  0  0  0  0  0  0  0  0  0
    7.1156   -7.5454   16.8218 C   0  0  0  0  0  0  0  0  0  0  0  0
   10.3885   -4.4388   19.2773 C   0  0  0  0  0  0  0  0  0  0  0  0
    4.5160   -9.3822   15.0841 C   0  0  0  0  0  0  0  0  0  0  0  0
  1  3  4  0
  1 24  4  0
  2  6  4  0
  2 15  4  0
  3  5  4  0
  3  6  4  0
  4 21  4  0
  4 29  4  0
  5 15  4  0
  5 28  1  0
  6 16  4  0
  7 18  4  0
  7 26  4  0
  8 18  1  0
  8 19  4  0
  8 22  4  0
  9 12  4  0
  9 19  4  0
 10 12  4  0
 10 22  4  0
 11 20  4  0
 11 21  4  0
 12 23  1  0
 13 20  4  0
 13 29  4  0
 14 17  4  0
 14 28  4  0
 15 25  2  0
 16 27  4  0
 17 18  4  0
 20 27  1  0
 24 27  4  0
 26 28  4  0
M  END
$$$$

 Created by Python create_sdf_string function

 29 33  0  0  0  0  0  0  0  0999 V2000
    8.8270   -7.0288   18.4251 C   0  0  0  0  0  0  0  0  0  0  0  0
    9.1576   -4.6236   15.8860 O   0  0  0  0  0  0  0  0  0  0  0  0
    9.1509   -5.9108   17.7177 C   0  0  0  0  0  0  0  0  0  0  0  0
    3.6373   -9.5349   16.0582 N   0  0  0  0  0  0  0  0  0  0  0  0
    9.9275   -4.8001   18.0438 N   0  0  0  0  0  0  0  0  0  0  0  0
    8.5908   -5.7425   16.4412 C   0  0  0  0  0  0  0  0  0  0  0  0
   10.5993   -4.8981   21.6068 C   0  0  0  0  0  0  0  0  0  0  0  0
   10.4258   -3.0106   23.0998 C   0  0  0  0  0  0  0  0  0  0  0  0
   10.2148   -3.4364   25.4200 C   0  0  0  0  0  0  0  0  0  0  0  0
    9.7853   -1.1840   24.4927 C   0  0  0  0  0  0  0  0  0  0  0  0
    5.0276   -8.5227   17.5352 C   0  0  0  0  0  0  0  0  0  0  0  0
    9.8187   -2.0895   25.5800 C   0  0  0  0  0  0  0  0  0  0  0  0
    5.6473   -8.7216   15.3158 C   0  0  0  0  0  0  0  0  0  0  0  0
   10.7581   -3.1233   19.4720 N   0  0  0  0  0  0  0  0  0  0  0  0
    9.9571   -4.0573   16.8866 C   0  0  0  0  0  0  0  0  0  0  0  0
    7.6213   -6.5618   16.0087 C   0  0  0  0  0  0  0  0  0  0  0  0
   10.8583   -2.6527   20.7222 C   0  0  0  0  0  0  0  0  0  0  0  0
   10.6412   -3.5089   21.7936 C   0  0  0  0  0  0  0  0  0  0  0  0
   10.4972   -3.8968   24.1589 C   0  0  0  0  0  0  0  0  0  0  0  0
    5.9260   -8.2736   16.5517 C   0  0  0  0  0  0  0  0  0  0  0  0
    3.8816   -9.1166   17.2493 C   0  0  0  0  0  0  0  0  0  0  0  0
   10.1297   -1.6575   23.2324 C   0  0  0  0  0  0  0  0  0  0  0  0
    9.4684   -1.6929   26.7263 F   0  0  0  0  0  0  0  0  0  0  0  0
    7.7963   -7.7906   17.9837 C   0  0  0  0  0  0  0  0  0  0  0  0
   10.5884   -3.0725   16.7902 O   0  0  0  0  0  0  0  0  0  0  0  0
   10.4323   -5.3494   20.3516 C   0  0  0  0  0  0  0  0  0  0  0  0
    7.1156   -7.5454   16.8218 C   0  0  0  0  0  0  0  0  0  0  0  0
   10.3885   -4.4388   19.2773 C   0  0  0  0  0  0  0  0  0  0  0  0
    4.5160   -9.3822   15.0841 C   0  0  0  0  0  0  0  0  0  0  0  0
  1  3  4  0
  1 24  4  0
  2  6  4  0
  2 15  4  0
  3  5  4  0
  3  6  4  0
  4 21  4  0
  4 29  4  0
  5 15  4  0
  5 28  1  0
  6 16  4  0
  7 18  4  0
  7 26  4  0
  8 18  1  0
  8 19  4  0
  8 22  4  0
  9 12  4  0
  9 19  4  0
 10 12  4  0
 10 22  4  0
 11 20  4  0
 11 21  4  0
 12 23  1  0
 13 20  4  0
 13 29  4  0
 14 17  4  0
 14 28  4  0
 15 25  2  0
 16 27  4  0
 17 18  4  0
 20 27  1  0
 24 27  4  0
 26 28  4  0
M  END
$$$$

 Created by Python create_sdf_string function

 29 33  0  0  0  0  0  0  0  0999 V2000
    8.8270   -7.0288   18.4251 C   0  0  0  0  0  0  0  0  0  0  0  0
    9.1576   -4.6236   15.8860 O   0  0  0  0  0  0  0  0  0  0  0  0
    9.1509   -5.9108   17.7177 C   0  0  0  0  0  0  0  0  0  0  0  0
    3.6373   -9.5349   16.0582 N   0  0  0  0  0  0  0  0  0  0  0  0
    9.9275   -4.8001   18.0438 N   0  0  0  0  0  0  0  0  0  0  0  0
    8.5908   -5.7425   16.4412 C   0  0  0  0  0  0  0  0  0  0  0  0
   10.5993   -4.8981   21.6068 C   0  0  0  0  0  0  0  0  0  0  0  0
   10.4258   -3.0106   23.0998 C   0  0  0  0  0  0  0  0  0  0  0  0
   10.2148   -3.4364   25.4200 C   0  0  0  0  0  0  0  0  0  0  0  0
    9.7853   -1.1840   24.4927 C   0  0  0  0  0  0  0  0  0  0  0  0
    5.0276   -8.5227   17.5352 C   0  0  0  0  0  0  0  0  0  0  0  0
    9.8187   -2.0895   25.5800 C   0  0  0  0  0  0  0  0  0  0  0  0
    5.6473   -8.7216   15.3158 C   0  0  0  0  0  0  0  0  0  0  0  0
   10.7581   -3.1233   19.4720 N   0  0  0  0  0  0  0  0  0  0  0  0
    9.9571   -4.0573   16.8866 C   0  0  0  0  0  0  0  0  0  0  0  0
    7.6213   -6.5618   16.0087 C   0  0  0  0  0  0  0  0  0  0  0  0
   10.8583   -2.6527   20.7222 C   0  0  0  0  0  0  0  0  0  0  0  0
   10.6412   -3.5089   21.7936 C   0  0  0  0  0  0  0  0  0  0  0  0
   10.4972   -3.8968   24.1589 C   0  0  0  0  0  0  0  0  0  0  0  0
    5.9260   -8.2736   16.5517 C   0  0  0  0  0  0  0  0  0  0  0  0
    3.8816   -9.1166   17.2493 C   0  0  0  0  0  0  0  0  0  0  0  0
   10.1297   -1.6575   23.2324 C   0  0  0  0  0  0  0  0  0  0  0  0
    9.4684   -1.6929   26.7263 F   0  0  0  0  0  0  0  0  0  0  0  0
    7.7963   -7.7906   17.9837 C   0  0  0  0  0  0  0  0  0  0  0  0
   10.5884   -3.0725   16.7902 O   0  0  0  0  0  0  0  0  0  0  0  0
   10.4323   -5.3494   20.3516 C   0  0  0  0  0  0  0  0  0  0  0  0
    7.1156   -7.5454   16.8218 C   0  0  0  0  0  0  0  0  0  0  0  0
   10.3885   -4.4388   19.2773 C   0  0  0  0  0  0  0  0  0  0  0  0
    4.5160   -9.3822   15.0841 C   0  0  0  0  0  0  0  0  0  0  0  0
  1  3  4  0
  1 24  4  0
  2  6  4  0
  2 15  4  0
  3  5  4  0
  3  6  4  0
  4 21  4  0
  4 29  4  0
  5 15  4  0
  5 28  1  0
  6 16  4  0
  7 18  4  0
  7 26  4  0
  8 18  1  0
  8 19  4  0
  8 22  4  0
  9 12  4  0
  9 19  4  0
 10 12  4  0
 10 22  4  0
 11 20  4  0
 11 21  4  0
 12 23  1  0
 13 20  4  0
 13 29  4  0
 14 17  4  0
 14 28  4  0
 15 25  2  0
 16 27  4  0
 17 18  4  0
 20 27  1  0
 24 27  4  0
 26 28  4  0
M  END
$$$$

 Created by Python create_sdf_string function

 29 33  0  0  0  0  0  0  0  0999 V2000
    8.8270   -7.0288   18.4251 C   0  0  0  0  0  0  0  0  0  0  0  0
    9.1576   -4.6236   15.8860 O   0  0  0  0  0  0  0  0  0  0  0  0
    9.1509   -5.9108   17.7177 C   0  0  0  0  0  0  0  0  0  0  0  0
    3.6373   -9.5349   16.0582 N   0  0  0  0  0  0  0  0  0  0  0  0
    9.9275   -4.8001   18.0438 N   0  0  0  0  0  0  0  0  0  0  0  0
    8.5908   -5.7425   16.4412 C   0  0  0  0  0  0  0  0  0  0  0  0
   10.5993   -4.8981   21.6068 C   0  0  0  0  0  0  0  0  0  0  0  0
   10.4258   -3.0106   23.0998 C   0  0  0  0  0  0  0  0  0  0  0  0
   10.2148   -3.4364   25.4200 C   0  0  0  0  0  0  0  0  0  0  0  0
    9.7853   -1.1840   24.4927 C   0  0  0  0  0  0  0  0  0  0  0  0
    5.0276   -8.5227   17.5352 C   0  0  0  0  0  0  0  0  0  0  0  0
    9.8187   -2.0895   25.5800 C   0  0  0  0  0  0  0  0  0  0  0  0
    5.6473   -8.7216   15.3158 C   0  0  0  0  0  0  0  0  0  0  0  0
   10.7581   -3.1233   19.4720 N   0  0  0  0  0  0  0  0  0  0  0  0
    9.9571   -4.0573   16.8866 C   0  0  0  0  0  0  0  0  0  0  0  0
    7.6213   -6.5618   16.0087 C   0  0  0  0  0  0  0  0  0  0  0  0
   10.8583   -2.6527   20.7222 C   0  0  0  0  0  0  0  0  0  0  0  0
   10.6412   -3.5089   21.7936 C   0  0  0  0  0  0  0  0  0  0  0  0
   10.4972   -3.8968   24.1589 C   0  0  0  0  0  0  0  0  0  0  0  0
    5.9260   -8.2736   16.5517 C   0  0  0  0  0  0  0  0  0  0  0  0
    3.8816   -9.1166   17.2493 C   0  0  0  0  0  0  0  0  0  0  0  0
   10.1297   -1.6575   23.2324 C   0  0  0  0  0  0  0  0  0  0  0  0
    9.4684   -1.6929   26.7263 F   0  0  0  0  0  0  0  0  0  0  0  0
    7.7963   -7.7906   17.9837 C   0  0  0  0  0  0  0  0  0  0  0  0
   10.5884   -3.0725   16.7902 O   0  0  0  0  0  0  0  0  0  0  0  0
   10.4323   -5.3494   20.3516 C   0  0  0  0  0  0  0  0  0  0  0  0
    7.1156   -7.5454   16.8218 C   0  0  0  0  0  0  0  0  0  0  0  0
   10.3885   -4.4388   19.2773 C   0  0  0  0  0  0  0  0  0  0  0  0
    4.5160   -9.3822   15.0841 C   0  0  0  0  0  0  0  0  0  0  0  0
  1  3  4  0
  1 24  4  0
  2  6  4  0
  2 15  4  0
  3  5  4  0
  3  6  4  0
  4 21  4  0
  4 29  4  0
  5 15  4  0
  5 28  1  0
  6 16  4  0
  7 18  4  0
  7 26  4  0
  8 18  1  0
  8 19  4  0
  8 22  4  0
  9 12  4  0
  9 19  4  0
 10 12  4  0
 10 22  4  0
 11 20  4  0
 11 21  4  0
 12 23  1  0
 13 20  4  0
 13 29  4  0
 14 17  4  0
 14 28  4  0
 15 25  2  0
 16 27  4  0
 17 18  4  0
 20 27  1  0
 24 27  4  0
 26 28  4  0
M  END
$$$$

 Created by Python create_sdf_string function

 29 33  0  0  0  0  0  0  0  0999 V2000
    8.8270   -7.0288   18.4251 C   0  0  0  0  0  0  0  0  0  0  0  0
    9.1576   -4.6236   15.8860 O   0  0  0  0  0  0  0  0  0  0  0  0
    9.1509   -5.9108   17.7177 C   0  0  0  0  0  0  0  0  0  0  0  0
    3.6373   -9.5349   16.0582 N   0  0  0  0  0  0  0  0  0  0  0  0
    9.9275   -4.8001   18.0438 N   0  0  0  0  0  0  0  0  0  0  0  0
    8.5908   -5.7425   16.4412 C   0  0  0  0  0  0  0  0  0  0  0  0
   10.5993   -4.8981   21.6068 C   0  0  0  0  0  0  0  0  0  0  0  0
   10.4258   -3.0106   23.0998 C   0  0  0  0  0  0  0  0  0  0  0  0
   10.2148   -3.4364   25.4200 C   0  0  0  0  0  0  0  0  0  0  0  0
    9.7853   -1.1840   24.4927 C   0  0  0  0  0  0  0  0  0  0  0  0
    5.0276   -8.5227   17.5352 C   0  0  0  0  0  0  0  0  0  0  0  0
    9.8187   -2.0895   25.5800 C   0  0  0  0  0  0  0  0  0  0  0  0
    5.6473   -8.7216   15.3158 C   0  0  0  0  0  0  0  0  0  0  0  0
   10.7581   -3.1233   19.4720 N   0  0  0  0  0  0  0  0  0  0  0  0
    9.9571   -4.0573   16.8866 C   0  0  0  0  0  0  0  0  0  0  0  0
    7.6213   -6.5618   16.0087 C   0  0  0  0  0  0  0  0  0  0  0  0
   10.8583   -2.6527   20.7222 C   0  0  0  0  0  0  0  0  0  0  0  0
   10.6412   -3.5089   21.7936 C   0  0  0  0  0  0  0  0  0  0  0  0
   10.4972   -3.8968   24.1589 C   0  0  0  0  0  0  0  0  0  0  0  0
    5.9260   -8.2736   16.5517 C   0  0  0  0  0  0  0  0  0  0  0  0
    3.8816   -9.1166   17.2493 C   0  0  0  0  0  0  0  0  0  0  0  0
   10.1297   -1.6575   23.2324 C   0  0  0  0  0  0  0  0  0  0  0  0
    9.4684   -1.6929   26.7263 F   0  0  0  0  0  0  0  0  0  0  0  0
    7.7963   -7.7906   17.9837 C   0  0  0  0  0  0  0  0  0  0  0  0
   10.5884   -3.0725   16.7902 O   0  0  0  0  0  0  0  0  0  0  0  0
   10.4323   -5.3494   20.3516 C   0  0  0  0  0  0  0  0  0  0  0  0
    7.1156   -7.5454   16.8218 C   0  0  0  0  0  0  0  0  0  0  0  0
   10.3885   -4.4388   19.2773 C   0  0  0  0  0  0  0  0  0  0  0  0
    4.5160   -9.3822   15.0841 C   0  0  0  0  0  0  0  0  0  0  0  0
  1  3  4  0
  1 24  4  0
  2  6  4  0
  2 15  4  0
  3  5  4  0
  3  6  4  0
  4 21  4  0
  4 29  4  0
  5 15  4  0
  5 28  1  0
  6 16  4  0
  7 18  4  0
  7 26  4  0
  8 18  1  0
  8 19  4  0
  8 22  4  0
  9 12  4  0
  9 19  4  0
 10 12  4  0
 10 22  4  0
 11 20  4  0
 11 21  4  0
 12 23  1  0
 13 20  4  0
 13 29  4  0
 14 17  4  0
 14 28  4  0
 15 25  2  0
 16 27  4  0
 17 18  4  0
 20 27  1  0
 24 27  4  0
 26 28  4  0
M  END
$$$$

 Created by Python create_sdf_string function

 29 33  0  0  0  0  0  0  0  0999 V2000
    8.8270   -7.0288   18.4251 C   0  0  0  0  0  0  0  0  0  0  0  0
    9.1576   -4.6236   15.8860 O   0  0  0  0  0  0  0  0  0  0  0  0
    9.1509   -5.9108   17.7177 C   0  0  0  0  0  0  0  0  0  0  0  0
    3.6373   -9.5349   16.0582 N   0  0  0  0  0  0  0  0  0  0  0  0
    9.9275   -4.8001   18.0438 N   0  0  0  0  0  0  0  0  0  0  0  0
    8.5908   -5.7425   16.4412 C   0  0  0  0  0  0  0  0  0  0  0  0
   10.5993   -4.8981   21.6068 C   0  0  0  0  0  0  0  0  0  0  0  0
   10.4258   -3.0106   23.0998 C   0  0  0  0  0  0  0  0  0  0  0  0
   10.2148   -3.4364   25.4200 C   0  0  0  0  0  0  0  0  0  0  0  0
    9.7853   -1.1840   24.4927 C   0  0  0  0  0  0  0  0  0  0  0  0
    5.0276   -8.5227   17.5352 C   0  0  0  0  0  0  0  0  0  0  0  0
    9.8187   -2.0895   25.5800 C   0  0  0  0  0  0  0  0  0  0  0  0
    5.6473   -8.7216   15.3158 C   0  0  0  0  0  0  0  0  0  0  0  0
   10.7581   -3.1233   19.4720 N   0  0  0  0  0  0  0  0  0  0  0  0
    9.9571   -4.0573   16.8866 C   0  0  0  0  0  0  0  0  0  0  0  0
    7.6213   -6.5618   16.0087 C   0  0  0  0  0  0  0  0  0  0  0  0
   10.8583   -2.6527   20.7222 C   0  0  0  0  0  0  0  0  0  0  0  0
   10.6412   -3.5089   21.7936 C   0  0  0  0  0  0  0  0  0  0  0  0
   10.4972   -3.8968   24.1589 C   0  0  0  0  0  0  0  0  0  0  0  0
    5.9260   -8.2736   16.5517 C   0  0  0  0  0  0  0  0  0  0  0  0
    3.8816   -9.1166   17.2493 C   0  0  0  0  0  0  0  0  0  0  0  0
   10.1297   -1.6575   23.2324 C   0  0  0  0  0  0  0  0  0  0  0  0
    9.4684   -1.6929   26.7263 F   0  0  0  0  0  0  0  0  0  0  0  0
    7.7963   -7.7906   17.9837 C   0  0  0  0  0  0  0  0  0  0  0  0
   10.5884   -3.0725   16.7902 O   0  0  0  0  0  0  0  0  0  0  0  0
   10.4323   -5.3494   20.3516 C   0  0  0  0  0  0  0  0  0  0  0  0
    7.1156   -7.5454   16.8218 C   0  0  0  0  0  0  0  0  0  0  0  0
   10.3885   -4.4388   19.2773 C   0  0  0  0  0  0  0  0  0  0  0  0
    4.5160   -9.3822   15.0841 C   0  0  0  0  0  0  0  0  0  0  0  0
  1  3  4  0
  1 24  4  0
  2  6  4  0
  2 15  4  0
  3  5  4  0
  3  6  4  0
  4 21  4  0
  4 29  4  0
  5 15  4  0
  5 28  1  0
  6 16  4  0
  7 18  4  0
  7 26  4  0
  8 18  1  0
  8 19  4  0
  8 22  4  0
  9 12  4  0
  9 19  4  0
 10 12  4  0
 10 22  4  0
 11 20  4  0
 11 21  4  0
 12 23  1  0
 13 20  4  0
 13 29  4  0
 14 17  4  0
 14 28  4  0
 15 25  2  0
 16 27  4  0
 17 18  4  0
 20 27  1  0
 24 27  4  0
 26 28  4  0
M  END
$$$$

 Created by Python create_sdf_string function

 29 33  0  0  0  0  0  0  0  0999 V2000
    8.8270   -7.0288   18.4251 C   0  0  0  0  0  0  0  0  0  0  0  0
    9.1576   -4.6236   15.8860 O   0  0  0  0  0  0  0  0  0  0  0  0
    9.1509   -5.9108   17.7177 C   0  0  0  0  0  0  0  0  0  0  0  0
    3.6373   -9.5349   16.0582 N   0  0  0  0  0  0  0  0  0  0  0  0
    9.9275   -4.8001   18.0438 N   0  0  0  0  0  0  0  0  0  0  0  0
    8.5908   -5.7425   16.4412 C   0  0  0  0  0  0  0  0  0  0  0  0
   10.5993   -4.8981   21.6068 C   0  0  0  0  0  0  0  0  0  0  0  0
   10.4258   -3.0106   23.0998 C   0  0  0  0  0  0  0  0  0  0  0  0
   10.2148   -3.4364   25.4200 C   0  0  0  0  0  0  0  0  0  0  0  0
    9.7853   -1.1840   24.4927 C   0  0  0  0  0  0  0  0  0  0  0  0
    5.0276   -8.5227   17.5352 C   0  0  0  0  0  0  0  0  0  0  0  0
    9.8187   -2.0895   25.5800 C   0  0  0  0  0  0  0  0  0  0  0  0
    5.6473   -8.7216   15.3158 C   0  0  0  0  0  0  0  0  0  0  0  0
   10.7581   -3.1233   19.4720 N   0  0  0  0  0  0  0  0  0  0  0  0
    9.9571   -4.0573   16.8866 C   0  0  0  0  0  0  0  0  0  0  0  0
    7.6213   -6.5618   16.0087 C   0  0  0  0  0  0  0  0  0  0  0  0
   10.8583   -2.6527   20.7222 C   0  0  0  0  0  0  0  0  0  0  0  0
   10.6412   -3.5089   21.7936 C   0  0  0  0  0  0  0  0  0  0  0  0
   10.4972   -3.8968   24.1589 C   0  0  0  0  0  0  0  0  0  0  0  0
    5.9260   -8.2736   16.5517 C   0  0  0  0  0  0  0  0  0  0  0  0
    3.8816   -9.1166   17.2493 C   0  0  0  0  0  0  0  0  0  0  0  0
   10.1297   -1.6575   23.2324 C   0  0  0  0  0  0  0  0  0  0  0  0
    9.4684   -1.6929   26.7263 F   0  0  0  0  0  0  0  0  0  0  0  0
    7.7963   -7.7906   17.9837 C   0  0  0  0  0  0  0  0  0  0  0  0
   10.5884   -3.0725   16.7902 O   0  0  0  0  0  0  0  0  0  0  0  0
   10.4323   -5.3494   20.3516 C   0  0  0  0  0  0  0  0  0  0  0  0
    7.1156   -7.5454   16.8218 C   0  0  0  0  0  0  0  0  0  0  0  0
   10.3885   -4.4388   19.2773 C   0  0  0  0  0  0  0  0  0  0  0  0
    4.5160   -9.3822   15.0841 C   0  0  0  0  0  0  0  0  0  0  0  0
  1  3  4  0
  1 24  4  0
  2  6  4  0
  2 15  4  0
  3  5  4  0
  3  6  4  0
  4 21  4  0
  4 29  4  0
  5 15  4  0
  5 28  1  0
  6 16  4  0
  7 18  4  0
  7 26  4  0
  8 18  1  0
  8 19  4  0
  8 22  4  0
  9 12  4  0
  9 19  4  0
 10 12  4  0
 10 22  4  0
 11 20  4  0
 11 21  4  0
 12 23  1  0
 13 20  4  0
 13 29  4  0
 14 17  4  0
 14 28  4  0
 15 25  2  0
 16 27  4  0
 17 18  4  0
 20 27  1  0
 24 27  4  0
 26 28  4  0
M  END
$$$$

 Created by Python create_sdf_string function

 29 33  0  0  0  0  0  0  0  0999 V2000
    8.8270   -7.0288   18.4251 C   0  0  0  0  0  0  0  0  0  0  0  0
    9.1576   -4.6236   15.8860 O   0  0  0  0  0  0  0  0  0  0  0  0
    9.1509   -5.9108   17.7177 C   0  0  0  0  0  0  0  0  0  0  0  0
    3.6373   -9.5349   16.0582 N   0  0  0  0  0  0  0  0  0  0  0  0
    9.9275   -4.8001   18.0438 N   0  0  0  0  0  0  0  0  0  0  0  0
    8.5908   -5.7425   16.4412 C   0  0  0  0  0  0  0  0  0  0  0  0
   10.5993   -4.8981   21.6068 C   0  0  0  0  0  0  0  0  0  0  0  0
   10.4258   -3.0106   23.0998 C   0  0  0  0  0  0  0  0  0  0  0  0
   10.2148   -3.4364   25.4200 C   0  0  0  0  0  0  0  0  0  0  0  0
    9.7853   -1.1840   24.4927 C   0  0  0  0  0  0  0  0  0  0  0  0
    5.0276   -8.5227   17.5352 C   0  0  0  0  0  0  0  0  0  0  0  0
    9.8187   -2.0895   25.5800 C   0  0  0  0  0  0  0  0  0  0  0  0
    5.6473   -8.7216   15.3158 C   0  0  0  0  0  0  0  0  0  0  0  0
   10.7581   -3.1233   19.4720 N   0  0  0  0  0  0  0  0  0  0  0  0
    9.9571   -4.0573   16.8866 C   0  0  0  0  0  0  0  0  0  0  0  0
    7.6213   -6.5618   16.0087 C   0  0  0  0  0  0  0  0  0  0  0  0
   10.8583   -2.6527   20.7222 C   0  0  0  0  0  0  0  0  0  0  0  0
   10.6412   -3.5089   21.7936 C   0  0  0  0  0  0  0  0  0  0  0  0
   10.4972   -3.8968   24.1589 C   0  0  0  0  0  0  0  0  0  0  0  0
    5.9260   -8.2736   16.5517 C   0  0  0  0  0  0  0  0  0  0  0  0
    3.8816   -9.1166   17.2493 C   0  0  0  0  0  0  0  0  0  0  0  0
   10.1297   -1.6575   23.2324 C   0  0  0  0  0  0  0  0  0  0  0  0
    9.4684   -1.6929   26.7263 F   0  0  0  0  0  0  0  0  0  0  0  0
    7.7963   -7.7906   17.9837 C   0  0  0  0  0  0  0  0  0  0  0  0
   10.5884   -3.0725   16.7902 O   0  0  0  0  0  0  0  0  0  0  0  0
   10.4323   -5.3494   20.3516 C   0  0  0  0  0  0  0  0  0  0  0  0
    7.1156   -7.5454   16.8218 C   0  0  0  0  0  0  0  0  0  0  0  0
   10.3885   -4.4388   19.2773 C   0  0  0  0  0  0  0  0  0  0  0  0
    4.5160   -9.3822   15.0841 C   0  0  0  0  0  0  0  0  0  0  0  0
  1  3  4  0
  1 24  4  0
  2  6  4  0
  2 15  4  0
  3  5  4  0
  3  6  4  0
  4 21  4  0
  4 29  4  0
  5 15  4  0
  5 28  1  0
  6 16  4  0
  7 18  4  0
  7 26  4  0
  8 18  1  0
  8 19  4  0
  8 22  4  0
  9 12  4  0
  9 19  4  0
 10 12  4  0
 10 22  4  0
 11 20  4  0
 11 21  4  0
 12 23  1  0
 13 20  4  0
 13 29  4  0
 14 17  4  0
 14 28  4  0
 15 25  2  0
 16 27  4  0
 17 18  4  0
 20 27  1  0
 24 27  4  0
 26 28  4  0
M  END
$$$$

 Created by Python create_sdf_string function

 29 33  0  0  0  0  0  0  0  0999 V2000
    8.8270   -7.0288   18.4251 C   0  0  0  0  0  0  0  0  0  0  0  0
    9.1576   -4.6236   15.8860 O   0  0  0  0  0  0  0  0  0  0  0  0
    9.1509   -5.9108   17.7177 C   0  0  0  0  0  0  0  0  0  0  0  0
    3.6373   -9.5349   16.0582 N   0  0  0  0  0  0  0  0  0  0  0  0
    9.9275   -4.8001   18.0438 N   0  0  0  0  0  0  0  0  0  0  0  0
    8.5908   -5.7425   16.4412 C   0  0  0  0  0  0  0  0  0  0  0  0
   10.5993   -4.8981   21.6068 C   0  0  0  0  0  0  0  0  0  0  0  0
   10.4258   -3.0106   23.0998 C   0  0  0  0  0  0  0  0  0  0  0  0
   10.2148   -3.4364   25.4200 C   0  0  0  0  0  0  0  0  0  0  0  0
    9.7853   -1.1840   24.4927 C   0  0  0  0  0  0  0  0  0  0  0  0
    5.0276   -8.5227   17.5352 C   0  0  0  0  0  0  0  0  0  0  0  0
    9.8187   -2.0895   25.5800 C   0  0  0  0  0  0  0  0  0  0  0  0
    5.6473   -8.7216   15.3158 C   0  0  0  0  0  0  0  0  0  0  0  0
   10.7581   -3.1233   19.4720 N   0  0  0  0  0  0  0  0  0  0  0  0
    9.9571   -4.0573   16.8866 C   0  0  0  0  0  0  0  0  0  0  0  0
    7.6213   -6.5618   16.0087 C   0  0  0  0  0  0  0  0  0  0  0  0
   10.8583   -2.6527   20.7222 C   0  0  0  0  0  0  0  0  0  0  0  0
   10.6412   -3.5089   21.7936 C   0  0  0  0  0  0  0  0  0  0  0  0
   10.4972   -3.8968   24.1589 C   0  0  0  0  0  0  0  0  0  0  0  0
    5.9260   -8.2736   16.5517 C   0  0  0  0  0  0  0  0  0  0  0  0
    3.8816   -9.1166   17.2493 C   0  0  0  0  0  0  0  0  0  0  0  0
   10.1297   -1.6575   23.2324 C   0  0  0  0  0  0  0  0  0  0  0  0
    9.4684   -1.6929   26.7263 F   0  0  0  0  0  0  0  0  0  0  0  0
    7.7963   -7.7906   17.9837 C   0  0  0  0  0  0  0  0  0  0  0  0
   10.5884   -3.0725   16.7902 O   0  0  0  0  0  0  0  0  0  0  0  0
   10.4323   -5.3494   20.3516 C   0  0  0  0  0  0  0  0  0  0  0  0
    7.1156   -7.5454   16.8218 C   0  0  0  0  0  0  0  0  0  0  0  0
   10.3885   -4.4388   19.2773 C   0  0  0  0  0  0  0  0  0  0  0  0
    4.5160   -9.3822   15.0841 C   0  0  0  0  0  0  0  0  0  0  0  0
  1  3  4  0
  1 24  4  0
  2  6  4  0
  2 15  4  0
  3  5  4  0
  3  6  4  0
  4 21  4  0
  4 29  4  0
  5 15  4  0
  5 28  1  0
  6 16  4  0
  7 18  4  0
  7 26  4  0
  8 18  1  0
  8 19  4  0
  8 22  4  0
  9 12  4  0
  9 19  4  0
 10 12  4  0
 10 22  4  0
 11 20  4  0
 11 21  4  0
 12 23  1  0
 13 20  4  0
 13 29  4  0
 14 17  4  0
 14 28  4  0
 15 25  2  0
 16 27  4  0
 17 18  4  0
 20 27  1  0
 24 27  4  0
 26 28  4  0
M  END
$$$$

 Created by Python create_sdf_string function

 29 33  0  0  0  0  0  0  0  0999 V2000
    8.8270   -7.0288   18.4251 C   0  0  0  0  0  0  0  0  0  0  0  0
    9.1576   -4.6236   15.8860 O   0  0  0  0  0  0  0  0  0  0  0  0
    9.1509   -5.9108   17.7177 C   0  0  0  0  0  0  0  0  0  0  0  0
    3.6373   -9.5349   16.0582 N   0  0  0  0  0  0  0  0  0  0  0  0
    9.9275   -4.8001   18.0438 N   0  0  0  0  0  0  0  0  0  0  0  0
    8.5908   -5.7425   16.4412 C   0  0  0  0  0  0  0  0  0  0  0  0
   10.5993   -4.8981   21.6068 C   0  0  0  0  0  0  0  0  0  0  0  0
   10.4258   -3.0106   23.0998 C   0  0  0  0  0  0  0  0  0  0  0  0
   10.2148   -3.4364   25.4200 C   0  0  0  0  0  0  0  0  0  0  0  0
    9.7853   -1.1840   24.4927 C   0  0  0  0  0  0  0  0  0  0  0  0
    5.0276   -8.5227   17.5352 C   0  0  0  0  0  0  0  0  0  0  0  0
    9.8187   -2.0895   25.5800 C   0  0  0  0  0  0  0  0  0  0  0  0
    5.6473   -8.7216   15.3158 C   0  0  0  0  0  0  0  0  0  0  0  0
   10.7581   -3.1233   19.4720 N   0  0  0  0  0  0  0  0  0  0  0  0
    9.9571   -4.0573   16.8866 C   0  0  0  0  0  0  0  0  0  0  0  0
    7.6213   -6.5618   16.0087 C   0  0  0  0  0  0  0  0  0  0  0  0
   10.8583   -2.6527   20.7222 C   0  0  0  0  0  0  0  0  0  0  0  0
   10.6412   -3.5089   21.7936 C   0  0  0  0  0  0  0  0  0  0  0  0
   10.4972   -3.8968   24.1589 C   0  0  0  0  0  0  0  0  0  0  0  0
    5.9260   -8.2736   16.5517 C   0  0  0  0  0  0  0  0  0  0  0  0
    3.8816   -9.1166   17.2493 C   0  0  0  0  0  0  0  0  0  0  0  0
   10.1297   -1.6575   23.2324 C   0  0  0  0  0  0  0  0  0  0  0  0
    9.4684   -1.6929   26.7263 F   0  0  0  0  0  0  0  0  0  0  0  0
    7.7963   -7.7906   17.9837 C   0  0  0  0  0  0  0  0  0  0  0  0
   10.5884   -3.0725   16.7902 O   0  0  0  0  0  0  0  0  0  0  0  0
   10.4323   -5.3494   20.3516 C   0  0  0  0  0  0  0  0  0  0  0  0
    7.1156   -7.5454   16.8218 C   0  0  0  0  0  0  0  0  0  0  0  0
   10.3885   -4.4388   19.2773 C   0  0  0  0  0  0  0  0  0  0  0  0
    4.5160   -9.3822   15.0841 C   0  0  0  0  0  0  0  0  0  0  0  0
  1  3  4  0
  1 24  4  0
  2  6  4  0
  2 15  4  0
  3  5  4  0
  3  6  4  0
  4 21  4  0
  4 29  4  0
  5 15  4  0
  5 28  1  0
  6 16  4  0
  7 18  4  0
  7 26  4  0
  8 18  1  0
  8 19  4  0
  8 22  4  0
  9 12  4  0
  9 19  4  0
 10 12  4  0
 10 22  4  0
 11 20  4  0
 11 21  4  0
 12 23  1  0
 13 20  4  0
 13 29  4  0
 14 17  4  0
 14 28  4  0
 15 25  2  0
 16 27  4  0
 17 18  4  0
 20 27  1  0
 24 27  4  0
 26 28  4  0
M  END
$$$$

 Created by Python create_sdf_string function

 29 33  0  0  0  0  0  0  0  0999 V2000
    8.8270   -7.0288   18.4251 C   0  0  0  0  0  0  0  0  0  0  0  0
    9.1576   -4.6236   15.8860 O   0  0  0  0  0  0  0  0  0  0  0  0
    9.1509   -5.9108   17.7177 C   0  0  0  0  0  0  0  0  0  0  0  0
    3.6373   -9.5349   16.0582 N   0  0  0  0  0  0  0  0  0  0  0  0
    9.9275   -4.8001   18.0438 N   0  0  0  0  0  0  0  0  0  0  0  0
    8.5908   -5.7425   16.4412 C   0  0  0  0  0  0  0  0  0  0  0  0
   10.5993   -4.8981   21.6068 C   0  0  0  0  0  0  0  0  0  0  0  0
   10.4258   -3.0106   23.0998 C   0  0  0  0  0  0  0  0  0  0  0  0
   10.2148   -3.4364   25.4200 C   0  0  0  0  0  0  0  0  0  0  0  0
    9.7853   -1.1840   24.4927 C   0  0  0  0  0  0  0  0  0  0  0  0
    5.0276   -8.5227   17.5352 C   0  0  0  0  0  0  0  0  0  0  0  0
    9.8187   -2.0895   25.5800 C   0  0  0  0  0  0  0  0  0  0  0  0
    5.6473   -8.7216   15.3158 C   0  0  0  0  0  0  0  0  0  0  0  0
   10.7581   -3.1233   19.4720 N   0  0  0  0  0  0  0  0  0  0  0  0
    9.9571   -4.0573   16.8866 C   0  0  0  0  0  0  0  0  0  0  0  0
    7.6213   -6.5618   16.0087 C   0  0  0  0  0  0  0  0  0  0  0  0
   10.8583   -2.6527   20.7222 C   0  0  0  0  0  0  0  0  0  0  0  0
   10.6412   -3.5089   21.7936 C   0  0  0  0  0  0  0  0  0  0  0  0
   10.4972   -3.8968   24.1589 C   0  0  0  0  0  0  0  0  0  0  0  0
    5.9260   -8.2736   16.5517 C   0  0  0  0  0  0  0  0  0  0  0  0
    3.8816   -9.1166   17.2493 C   0  0  0  0  0  0  0  0  0  0  0  0
   10.1297   -1.6575   23.2324 C   0  0  0  0  0  0  0  0  0  0  0  0
    9.4684   -1.6929   26.7263 F   0  0  0  0  0  0  0  0  0  0  0  0
    7.7963   -7.7906   17.9837 C   0  0  0  0  0  0  0  0  0  0  0  0
   10.5884   -3.0725   16.7902 O   0  0  0  0  0  0  0  0  0  0  0  0
   10.4323   -5.3494   20.3516 C   0  0  0  0  0  0  0  0  0  0  0  0
    7.1156   -7.5454   16.8218 C   0  0  0  0  0  0  0  0  0  0  0  0
   10.3885   -4.4388   19.2773 C   0  0  0  0  0  0  0  0  0  0  0  0
    4.5160   -9.3822   15.0841 C   0  0  0  0  0  0  0  0  0  0  0  0
  1  3  4  0
  1 24  4  0
  2  6  4  0
  2 15  4  0
  3  5  4  0
  3  6  4  0
  4 21  4  0
  4 29  4  0
  5 15  4  0
  5 28  1  0
  6 16  4  0
  7 18  4  0
  7 26  4  0
  8 18  1  0
  8 19  4  0
  8 22  4  0
  9 12  4  0
  9 19  4  0
 10 12  4  0
 10 22  4  0
 11 20  4  0
 11 21  4  0
 12 23  1  0
 13 20  4  0
 13 29  4  0
 14 17  4  0
 14 28  4  0
 15 25  2  0
 16 27  4  0
 17 18  4  0
 20 27  1  0
 24 27  4  0
 26 28  4  0
M  END
$$$$

 Created by Python create_sdf_string function

 29 33  0  0  0  0  0  0  0  0999 V2000
    8.8270   -7.0288   18.4251 C   0  0  0  0  0  0  0  0  0  0  0  0
    9.1576   -4.6236   15.8860 O   0  0  0  0  0  0  0  0  0  0  0  0
    9.1509   -5.9108   17.7177 C   0  0  0  0  0  0  0  0  0  0  0  0
    3.6373   -9.5349   16.0582 N   0  0  0  0  0  0  0  0  0  0  0  0
    9.9275   -4.8001   18.0438 N   0  0  0  0  0  0  0  0  0  0  0  0
    8.5908   -5.7425   16.4412 C   0  0  0  0  0  0  0  0  0  0  0  0
   10.5993   -4.8981   21.6068 C   0  0  0  0  0  0  0  0  0  0  0  0
   10.4258   -3.0106   23.0998 C   0  0  0  0  0  0  0  0  0  0  0  0
   10.2148   -3.4364   25.4200 C   0  0  0  0  0  0  0  0  0  0  0  0
    9.7853   -1.1840   24.4927 C   0  0  0  0  0  0  0  0  0  0  0  0
    5.0276   -8.5227   17.5352 C   0  0  0  0  0  0  0  0  0  0  0  0
    9.8187   -2.0895   25.5800 C   0  0  0  0  0  0  0  0  0  0  0  0
    5.6473   -8.7216   15.3158 C   0  0  0  0  0  0  0  0  0  0  0  0
   10.7581   -3.1233   19.4720 N   0  0  0  0  0  0  0  0  0  0  0  0
    9.9571   -4.0573   16.8866 C   0  0  0  0  0  0  0  0  0  0  0  0
    7.6213   -6.5618   16.0087 C   0  0  0  0  0  0  0  0  0  0  0  0
   10.8583   -2.6527   20.7222 C   0  0  0  0  0  0  0  0  0  0  0  0
   10.6412   -3.5089   21.7936 C   0  0  0  0  0  0  0  0  0  0  0  0
   10.4972   -3.8968   24.1589 C   0  0  0  0  0  0  0  0  0  0  0  0
    5.9260   -8.2736   16.5517 C   0  0  0  0  0  0  0  0  0  0  0  0
    3.8816   -9.1166   17.2493 C   0  0  0  0  0  0  0  0  0  0  0  0
   10.1297   -1.6575   23.2324 C   0  0  0  0  0  0  0  0  0  0  0  0
    9.4684   -1.6929   26.7263 F   0  0  0  0  0  0  0  0  0  0  0  0
    7.7963   -7.7906   17.9837 C   0  0  0  0  0  0  0  0  0  0  0  0
   10.5884   -3.0725   16.7902 O   0  0  0  0  0  0  0  0  0  0  0  0
   10.4323   -5.3494   20.3516 C   0  0  0  0  0  0  0  0  0  0  0  0
    7.1156   -7.5454   16.8218 C   0  0  0  0  0  0  0  0  0  0  0  0
   10.3885   -4.4388   19.2773 C   0  0  0  0  0  0  0  0  0  0  0  0
    4.5160   -9.3822   15.0841 C   0  0  0  0  0  0  0  0  0  0  0  0
  1  3  4  0
  1 24  4  0
  2  6  4  0
  2 15  4  0
  3  5  4  0
  3  6  4  0
  4 21  4  0
  4 29  4  0
  5 15  4  0
  5 28  1  0
  6 16  4  0
  7 18  4  0
  7 26  4  0
  8 18  1  0
  8 19  4  0
  8 22  4  0
  9 12  4  0
  9 19  4  0
 10 12  4  0
 10 22  4  0
 11 20  4  0
 11 21  4  0
 12 23  1  0
 13 20  4  0
 13 29  4  0
 14 17  4  0
 14 28  4  0
 15 25  2  0
 16 27  4  0
 17 18  4  0
 20 27  1  0
 24 27  4  0
 26 28  4  0
M  END
$$$$

 Created by Python create_sdf_string function

 29 33  0  0  0  0  0  0  0  0999 V2000
    8.8270   -7.0288   18.4251 C   0  0  0  0  0  0  0  0  0  0  0  0
    9.1576   -4.6236   15.8860 O   0  0  0  0  0  0  0  0  0  0  0  0
    9.1509   -5.9108   17.7177 C   0  0  0  0  0  0  0  0  0  0  0  0
    3.6373   -9.5349   16.0582 N   0  0  0  0  0  0  0  0  0  0  0  0
    9.9275   -4.8001   18.0438 N   0  0  0  0  0  0  0  0  0  0  0  0
    8.5908   -5.7425   16.4412 C   0  0  0  0  0  0  0  0  0  0  0  0
   10.5993   -4.8981   21.6068 C   0  0  0  0  0  0  0  0  0  0  0  0
   10.4258   -3.0106   23.0998 C   0  0  0  0  0  0  0  0  0  0  0  0
   10.2148   -3.4364   25.4200 C   0  0  0  0  0  0  0  0  0  0  0  0
    9.7853   -1.1840   24.4927 C   0  0  0  0  0  0  0  0  0  0  0  0
    5.0276   -8.5227   17.5352 C   0  0  0  0  0  0  0  0  0  0  0  0
    9.8187   -2.0895   25.5800 C   0  0  0  0  0  0  0  0  0  0  0  0
    5.6473   -8.7216   15.3158 C   0  0  0  0  0  0  0  0  0  0  0  0
   10.7581   -3.1233   19.4720 N   0  0  0  0  0  0  0  0  0  0  0  0
    9.9571   -4.0573   16.8866 C   0  0  0  0  0  0  0  0  0  0  0  0
    7.6213   -6.5618   16.0087 C   0  0  0  0  0  0  0  0  0  0  0  0
   10.8583   -2.6527   20.7222 C   0  0  0  0  0  0  0  0  0  0  0  0
   10.6412   -3.5089   21.7936 C   0  0  0  0  0  0  0  0  0  0  0  0
   10.4972   -3.8968   24.1589 C   0  0  0  0  0  0  0  0  0  0  0  0
    5.9260   -8.2736   16.5517 C   0  0  0  0  0  0  0  0  0  0  0  0
    3.8816   -9.1166   17.2493 C   0  0  0  0  0  0  0  0  0  0  0  0
   10.1297   -1.6575   23.2324 C   0  0  0  0  0  0  0  0  0  0  0  0
    9.4684   -1.6929   26.7263 F   0  0  0  0  0  0  0  0  0  0  0  0
    7.7963   -7.7906   17.9837 C   0  0  0  0  0  0  0  0  0  0  0  0
   10.5884   -3.0725   16.7902 O   0  0  0  0  0  0  0  0  0  0  0  0
   10.4323   -5.3494   20.3516 C   0  0  0  0  0  0  0  0  0  0  0  0
    7.1156   -7.5454   16.8218 C   0  0  0  0  0  0  0  0  0  0  0  0
   10.3885   -4.4388   19.2773 C   0  0  0  0  0  0  0  0  0  0  0  0
    4.5160   -9.3822   15.0841 C   0  0  0  0  0  0  0  0  0  0  0  0
  1  3  4  0
  1 24  4  0
  2  6  4  0
  2 15  4  0
  3  5  4  0
  3  6  4  0
  4 21  4  0
  4 29  4  0
  5 15  4  0
  5 28  1  0
  6 16  4  0
  7 18  4  0
  7 26  4  0
  8 18  1  0
  8 19  4  0
  8 22  4  0
  9 12  4  0
  9 19  4  0
 10 12  4  0
 10 22  4  0
 11 20  4  0
 11 21  4  0
 12 23  1  0
 13 20  4  0
 13 29  4  0
 14 17  4  0
 14 28  4  0
 15 25  2  0
 16 27  4  0
 17 18  4  0
 20 27  1  0
 24 27  4  0
 26 28  4  0
M  END
$$$$

 Created by Python create_sdf_string function

 29 33  0  0  0  0  0  0  0  0999 V2000
    8.8270   -7.0288   18.4251 C   0  0  0  0  0  0  0  0  0  0  0  0
    9.1576   -4.6236   15.8860 O   0  0  0  0  0  0  0  0  0  0  0  0
    9.1509   -5.9108   17.7177 C   0  0  0  0  0  0  0  0  0  0  0  0
    3.6373   -9.5349   16.0582 N   0  0  0  0  0  0  0  0  0  0  0  0
    9.9275   -4.8001   18.0438 N   0  0  0  0  0  0  0  0  0  0  0  0
    8.5908   -5.7425   16.4412 C   0  0  0  0  0  0  0  0  0  0  0  0
   10.5993   -4.8981   21.6068 C   0  0  0  0  0  0  0  0  0  0  0  0
   10.4258   -3.0106   23.0998 C   0  0  0  0  0  0  0  0  0  0  0  0
   10.2148   -3.4364   25.4200 C   0  0  0  0  0  0  0  0  0  0  0  0
    9.7853   -1.1840   24.4927 C   0  0  0  0  0  0  0  0  0  0  0  0
    5.0276   -8.5227   17.5352 C   0  0  0  0  0  0  0  0  0  0  0  0
    9.8187   -2.0895   25.5800 C   0  0  0  0  0  0  0  0  0  0  0  0
    5.6473   -8.7216   15.3158 C   0  0  0  0  0  0  0  0  0  0  0  0
   10.7581   -3.1233   19.4720 N   0  0  0  0  0  0  0  0  0  0  0  0
    9.9571   -4.0573   16.8866 C   0  0  0  0  0  0  0  0  0  0  0  0
    7.6213   -6.5618   16.0087 C   0  0  0  0  0  0  0  0  0  0  0  0
   10.8583   -2.6527   20.7222 C   0  0  0  0  0  0  0  0  0  0  0  0
   10.6412   -3.5089   21.7936 C   0  0  0  0  0  0  0  0  0  0  0  0
   10.4972   -3.8968   24.1589 C   0  0  0  0  0  0  0  0  0  0  0  0
    5.9260   -8.2736   16.5517 C   0  0  0  0  0  0  0  0  0  0  0  0
    3.8816   -9.1166   17.2493 C   0  0  0  0  0  0  0  0  0  0  0  0
   10.1297   -1.6575   23.2324 C   0  0  0  0  0  0  0  0  0  0  0  0
    9.4684   -1.6929   26.7263 F   0  0  0  0  0  0  0  0  0  0  0  0
    7.7963   -7.7906   17.9837 C   0  0  0  0  0  0  0  0  0  0  0  0
   10.5884   -3.0725   16.7902 O   0  0  0  0  0  0  0  0  0  0  0  0
   10.4323   -5.3494   20.3516 C   0  0  0  0  0  0  0  0  0  0  0  0
    7.1156   -7.5454   16.8218 C   0  0  0  0  0  0  0  0  0  0  0  0
   10.3885   -4.4388   19.2773 C   0  0  0  0  0  0  0  0  0  0  0  0
    4.5160   -9.3822   15.0841 C   0  0  0  0  0  0  0  0  0  0  0  0
  1  3  4  0
  1 24  4  0
  2  6  4  0
  2 15  4  0
  3  5  4  0
  3  6  4  0
  4 21  4  0
  4 29  4  0
  5 15  4  0
  5 28  1  0
  6 16  4  0
  7 18  4  0
  7 26  4  0
  8 18  1  0
  8 19  4  0
  8 22  4  0
  9 12  4  0
  9 19  4  0
 10 12  4  0
 10 22  4  0
 11 20  4  0
 11 21  4  0
 12 23  1  0
 13 20  4  0
 13 29  4  0
 14 17  4  0
 14 28  4  0
 15 25  2  0
 16 27  4  0
 17 18  4  0
 20 27  1  0
 24 27  4  0
 26 28  4  0
M  END
$$$$

 Created by Python create_sdf_string function

 29 33  0  0  0  0  0  0  0  0999 V2000
    8.8270   -7.0288   18.4251 C   0  0  0  0  0  0  0  0  0  0  0  0
    9.1576   -4.6236   15.8860 O   0  0  0  0  0  0  0  0  0  0  0  0
    9.1509   -5.9108   17.7177 C   0  0  0  0  0  0  0  0  0  0  0  0
    3.6373   -9.5349   16.0582 N   0  0  0  0  0  0  0  0  0  0  0  0
    9.9275   -4.8001   18.0438 N   0  0  0  0  0  0  0  0  0  0  0  0
    8.5908   -5.7425   16.4412 C   0  0  0  0  0  0  0  0  0  0  0  0
   10.5993   -4.8981   21.6068 C   0  0  0  0  0  0  0  0  0  0  0  0
   10.4258   -3.0106   23.0998 C   0  0  0  0  0  0  0  0  0  0  0  0
   10.2148   -3.4364   25.4200 C   0  0  0  0  0  0  0  0  0  0  0  0
    9.7853   -1.1840   24.4927 C   0  0  0  0  0  0  0  0  0  0  0  0
    5.0276   -8.5227   17.5352 C   0  0  0  0  0  0  0  0  0  0  0  0
    9.8187   -2.0895   25.5800 C   0  0  0  0  0  0  0  0  0  0  0  0
    5.6473   -8.7216   15.3158 C   0  0  0  0  0  0  0  0  0  0  0  0
   10.7581   -3.1233   19.4720 N   0  0  0  0  0  0  0  0  0  0  0  0
    9.9571   -4.0573   16.8866 C   0  0  0  0  0  0  0  0  0  0  0  0
    7.6213   -6.5618   16.0087 C   0  0  0  0  0  0  0  0  0  0  0  0
   10.8583   -2.6527   20.7222 C   0  0  0  0  0  0  0  0  0  0  0  0
   10.6412   -3.5089   21.7936 C   0  0  0  0  0  0  0  0  0  0  0  0
   10.4972   -3.8968   24.1589 C   0  0  0  0  0  0  0  0  0  0  0  0
    5.9260   -8.2736   16.5517 C   0  0  0  0  0  0  0  0  0  0  0  0
    3.8816   -9.1166   17.2493 C   0  0  0  0  0  0  0  0  0  0  0  0
   10.1297   -1.6575   23.2324 C   0  0  0  0  0  0  0  0  0  0  0  0
    9.4684   -1.6929   26.7263 F   0  0  0  0  0  0  0  0  0  0  0  0
    7.7963   -7.7906   17.9837 C   0  0  0  0  0  0  0  0  0  0  0  0
   10.5884   -3.0725   16.7902 O   0  0  0  0  0  0  0  0  0  0  0  0
   10.4323   -5.3494   20.3516 C   0  0  0  0  0  0  0  0  0  0  0  0
    7.1156   -7.5454   16.8218 C   0  0  0  0  0  0  0  0  0  0  0  0
   10.3885   -4.4388   19.2773 C   0  0  0  0  0  0  0  0  0  0  0  0
    4.5160   -9.3822   15.0841 C   0  0  0  0  0  0  0  0  0  0  0  0
  1  3  4  0
  1 24  4  0
  2  6  4  0
  2 15  4  0
  3  5  4  0
  3  6  4  0
  4 21  4  0
  4 29  4  0
  5 15  4  0
  5 28  1  0
  6 16  4  0
  7 18  4  0
  7 26  4  0
  8 18  1  0
  8 19  4  0
  8 22  4  0
  9 12  4  0
  9 19  4  0
 10 12  4  0
 10 22  4  0
 11 20  4  0
 11 21  4  0
 12 23  1  0
 13 20  4  0
 13 29  4  0
 14 17  4  0
 14 28  4  0
 15 25  2  0
 16 27  4  0
 17 18  4  0
 20 27  1  0
 24 27  4  0
 26 28  4  0
M  END
$$$$

 Created by Python create_sdf_string function

 29 33  0  0  0  0  0  0  0  0999 V2000
    8.8270   -7.0288   18.4251 C   0  0  0  0  0  0  0  0  0  0  0  0
    9.1576   -4.6236   15.8860 O   0  0  0  0  0  0  0  0  0  0  0  0
    9.1509   -5.9108   17.7177 C   0  0  0  0  0  0  0  0  0  0  0  0
    3.6373   -9.5349   16.0582 N   0  0  0  0  0  0  0  0  0  0  0  0
    9.9275   -4.8001   18.0438 N   0  0  0  0  0  0  0  0  0  0  0  0
    8.5908   -5.7425   16.4412 C   0  0  0  0  0  0  0  0  0  0  0  0
   10.5993   -4.8981   21.6068 C   0  0  0  0  0  0  0  0  0  0  0  0
   10.4258   -3.0106   23.0998 C   0  0  0  0  0  0  0  0  0  0  0  0
   10.2148   -3.4364   25.4200 C   0  0  0  0  0  0  0  0  0  0  0  0
    9.7853   -1.1840   24.4927 C   0  0  0  0  0  0  0  0  0  0  0  0
    5.0276   -8.5227   17.5352 C   0  0  0  0  0  0  0  0  0  0  0  0
    9.8187   -2.0895   25.5800 C   0  0  0  0  0  0  0  0  0  0  0  0
    5.6473   -8.7216   15.3158 C   0  0  0  0  0  0  0  0  0  0  0  0
   10.7581   -3.1233   19.4720 N   0  0  0  0  0  0  0  0  0  0  0  0
    9.9571   -4.0573   16.8866 C   0  0  0  0  0  0  0  0  0  0  0  0
    7.6213   -6.5618   16.0087 C   0  0  0  0  0  0  0  0  0  0  0  0
   10.8583   -2.6527   20.7222 C   0  0  0  0  0  0  0  0  0  0  0  0
   10.6412   -3.5089   21.7936 C   0  0  0  0  0  0  0  0  0  0  0  0
   10.4972   -3.8968   24.1589 C   0  0  0  0  0  0  0  0  0  0  0  0
    5.9260   -8.2736   16.5517 C   0  0  0  0  0  0  0  0  0  0  0  0
    3.8816   -9.1166   17.2493 C   0  0  0  0  0  0  0  0  0  0  0  0
   10.1297   -1.6575   23.2324 C   0  0  0  0  0  0  0  0  0  0  0  0
    9.4684   -1.6929   26.7263 F   0  0  0  0  0  0  0  0  0  0  0  0
    7.7963   -7.7906   17.9837 C   0  0  0  0  0  0  0  0  0  0  0  0
   10.5884   -3.0725   16.7902 O   0  0  0  0  0  0  0  0  0  0  0  0
   10.4323   -5.3494   20.3516 C   0  0  0  0  0  0  0  0  0  0  0  0
    7.1156   -7.5454   16.8218 C   0  0  0  0  0  0  0  0  0  0  0  0
   10.3885   -4.4388   19.2773 C   0  0  0  0  0  0  0  0  0  0  0  0
    4.5160   -9.3822   15.0841 C   0  0  0  0  0  0  0  0  0  0  0  0
  1  3  4  0
  1 24  4  0
  2  6  4  0
  2 15  4  0
  3  5  4  0
  3  6  4  0
  4 21  4  0
  4 29  4  0
  5 15  4  0
  5 28  1  0
  6 16  4  0
  7 18  4  0
  7 26  4  0
  8 18  1  0
  8 19  4  0
  8 22  4  0
  9 12  4  0
  9 19  4  0
 10 12  4  0
 10 22  4  0
 11 20  4  0
 11 21  4  0
 12 23  1  0
 13 20  4  0
 13 29  4  0
 14 17  4  0
 14 28  4  0
 15 25  2  0
 16 27  4  0
 17 18  4  0
 20 27  1  0
 24 27  4  0
 26 28  4  0
M  END
$$$$

 Created by Python create_sdf_string function

 29 33  0  0  0  0  0  0  0  0999 V2000
    8.8270   -7.0288   18.4251 C   0  0  0  0  0  0  0  0  0  0  0  0
    9.1576   -4.6236   15.8860 O   0  0  0  0  0  0  0  0  0  0  0  0
    9.1509   -5.9108   17.7177 C   0  0  0  0  0  0  0  0  0  0  0  0
    3.6373   -9.5349   16.0582 N   0  0  0  0  0  0  0  0  0  0  0  0
    9.9275   -4.8001   18.0438 N   0  0  0  0  0  0  0  0  0  0  0  0
    8.5908   -5.7425   16.4412 C   0  0  0  0  0  0  0  0  0  0  0  0
   10.5993   -4.8981   21.6068 C   0  0  0  0  0  0  0  0  0  0  0  0
   10.4258   -3.0106   23.0998 C   0  0  0  0  0  0  0  0  0  0  0  0
   10.2148   -3.4364   25.4200 C   0  0  0  0  0  0  0  0  0  0  0  0
    9.7853   -1.1840   24.4927 C   0  0  0  0  0  0  0  0  0  0  0  0
    5.0276   -8.5227   17.5352 C   0  0  0  0  0  0  0  0  0  0  0  0
    9.8187   -2.0895   25.5800 C   0  0  0  0  0  0  0  0  0  0  0  0
    5.6473   -8.7216   15.3158 C   0  0  0  0  0  0  0  0  0  0  0  0
   10.7581   -3.1233   19.4720 N   0  0  0  0  0  0  0  0  0  0  0  0
    9.9571   -4.0573   16.8866 C   0  0  0  0  0  0  0  0  0  0  0  0
    7.6213   -6.5618   16.0087 C   0  0  0  0  0  0  0  0  0  0  0  0
   10.8583   -2.6527   20.7222 C   0  0  0  0  0  0  0  0  0  0  0  0
   10.6412   -3.5089   21.7936 C   0  0  0  0  0  0  0  0  0  0  0  0
   10.4972   -3.8968   24.1589 C   0  0  0  0  0  0  0  0  0  0  0  0
    5.9260   -8.2736   16.5517 C   0  0  0  0  0  0  0  0  0  0  0  0
    3.8816   -9.1166   17.2493 C   0  0  0  0  0  0  0  0  0  0  0  0
   10.1297   -1.6575   23.2324 C   0  0  0  0  0  0  0  0  0  0  0  0
    9.4684   -1.6929   26.7263 F   0  0  0  0  0  0  0  0  0  0  0  0
    7.7963   -7.7906   17.9837 C   0  0  0  0  0  0  0  0  0  0  0  0
   10.5884   -3.0725   16.7902 O   0  0  0  0  0  0  0  0  0  0  0  0
   10.4323   -5.3494   20.3516 C   0  0  0  0  0  0  0  0  0  0  0  0
    7.1156   -7.5454   16.8218 C   0  0  0  0  0  0  0  0  0  0  0  0
   10.3885   -4.4388   19.2773 C   0  0  0  0  0  0  0  0  0  0  0  0
    4.5160   -9.3822   15.0841 C   0  0  0  0  0  0  0  0  0  0  0  0
  1  3  4  0
  1 24  4  0
  2  6  4  0
  2 15  4  0
  3  5  4  0
  3  6  4  0
  4 21  4  0
  4 29  4  0
  5 15  4  0
  5 28  1  0
  6 16  4  0
  7 18  4  0
  7 26  4  0
  8 18  1  0
  8 19  4  0
  8 22  4  0
  9 12  4  0
  9 19  4  0
 10 12  4  0
 10 22  4  0
 11 20  4  0
 11 21  4  0
 12 23  1  0
 13 20  4  0
 13 29  4  0
 14 17  4  0
 14 28  4  0
 15 25  2  0
 16 27  4  0
 17 18  4  0
 20 27  1  0
 24 27  4  0
 26 28  4  0
M  END
$$$$

 Created by Python create_sdf_string function

 29 33  0  0  0  0  0  0  0  0999 V2000
    8.8270   -7.0288   18.4251 C   0  0  0  0  0  0  0  0  0  0  0  0
    9.1576   -4.6236   15.8860 O   0  0  0  0  0  0  0  0  0  0  0  0
    9.1509   -5.9108   17.7177 C   0  0  0  0  0  0  0  0  0  0  0  0
    3.6373   -9.5349   16.0582 N   0  0  0  0  0  0  0  0  0  0  0  0
    9.9275   -4.8001   18.0438 N   0  0  0  0  0  0  0  0  0  0  0  0
    8.5908   -5.7425   16.4412 C   0  0  0  0  0  0  0  0  0  0  0  0
   10.5993   -4.8981   21.6068 C   0  0  0  0  0  0  0  0  0  0  0  0
   10.4258   -3.0106   23.0998 C   0  0  0  0  0  0  0  0  0  0  0  0
   10.2148   -3.4364   25.4200 C   0  0  0  0  0  0  0  0  0  0  0  0
    9.7853   -1.1840   24.4927 C   0  0  0  0  0  0  0  0  0  0  0  0
    5.0276   -8.5227   17.5352 C   0  0  0  0  0  0  0  0  0  0  0  0
    9.8187   -2.0895   25.5800 C   0  0  0  0  0  0  0  0  0  0  0  0
    5.6473   -8.7216   15.3158 C   0  0  0  0  0  0  0  0  0  0  0  0
   10.7581   -3.1233   19.4720 N   0  0  0  0  0  0  0  0  0  0  0  0
    9.9571   -4.0573   16.8866 C   0  0  0  0  0  0  0  0  0  0  0  0
    7.6213   -6.5618   16.0087 C   0  0  0  0  0  0  0  0  0  0  0  0
   10.8583   -2.6527   20.7222 C   0  0  0  0  0  0  0  0  0  0  0  0
   10.6412   -3.5089   21.7936 C   0  0  0  0  0  0  0  0  0  0  0  0
   10.4972   -3.8968   24.1589 C   0  0  0  0  0  0  0  0  0  0  0  0
    5.9260   -8.2736   16.5517 C   0  0  0  0  0  0  0  0  0  0  0  0
    3.8816   -9.1166   17.2493 C   0  0  0  0  0  0  0  0  0  0  0  0
   10.1297   -1.6575   23.2324 C   0  0  0  0  0  0  0  0  0  0  0  0
    9.4684   -1.6929   26.7263 F   0  0  0  0  0  0  0  0  0  0  0  0
    7.7963   -7.7906   17.9837 C   0  0  0  0  0  0  0  0  0  0  0  0
   10.5884   -3.0725   16.7902 O   0  0  0  0  0  0  0  0  0  0  0  0
   10.4323   -5.3494   20.3516 C   0  0  0  0  0  0  0  0  0  0  0  0
    7.1156   -7.5454   16.8218 C   0  0  0  0  0  0  0  0  0  0  0  0
   10.3885   -4.4388   19.2773 C   0  0  0  0  0  0  0  0  0  0  0  0
    4.5160   -9.3822   15.0841 C   0  0  0  0  0  0  0  0  0  0  0  0
  1  3  4  0
  1 24  4  0
  2  6  4  0
  2 15  4  0
  3  5  4  0
  3  6  4  0
  4 21  4  0
  4 29  4  0
  5 15  4  0
  5 28  1  0
  6 16  4  0
  7 18  4  0
  7 26  4  0
  8 18  1  0
  8 19  4  0
  8 22  4  0
  9 12  4  0
  9 19  4  0
 10 12  4  0
 10 22  4  0
 11 20  4  0
 11 21  4  0
 12 23  1  0
 13 20  4  0
 13 29  4  0
 14 17  4  0
 14 28  4  0
 15 25  2  0
 16 27  4  0
 17 18  4  0
 20 27  1  0
 24 27  4  0
 26 28  4  0
M  END
$$$$

 Created by Python create_sdf_string function

 29 33  0  0  0  0  0  0  0  0999 V2000
    8.8270   -7.0288   18.4251 C   0  0  0  0  0  0  0  0  0  0  0  0
    9.1576   -4.6236   15.8860 O   0  0  0  0  0  0  0  0  0  0  0  0
    9.1509   -5.9108   17.7177 C   0  0  0  0  0  0  0  0  0  0  0  0
    3.6373   -9.5349   16.0582 N   0  0  0  0  0  0  0  0  0  0  0  0
    9.9275   -4.8001   18.0438 N   0  0  0  0  0  0  0  0  0  0  0  0
    8.5908   -5.7425   16.4412 C   0  0  0  0  0  0  0  0  0  0  0  0
   10.5993   -4.8981   21.6068 C   0  0  0  0  0  0  0  0  0  0  0  0
   10.4258   -3.0106   23.0998 C   0  0  0  0  0  0  0  0  0  0  0  0
   10.2148   -3.4364   25.4200 C   0  0  0  0  0  0  0  0  0  0  0  0
    9.7853   -1.1840   24.4927 C   0  0  0  0  0  0  0  0  0  0  0  0
    5.0276   -8.5227   17.5352 C   0  0  0  0  0  0  0  0  0  0  0  0
    9.8187   -2.0895   25.5800 C   0  0  0  0  0  0  0  0  0  0  0  0
    5.6473   -8.7216   15.3158 C   0  0  0  0  0  0  0  0  0  0  0  0
   10.7581   -3.1233   19.4720 N   0  0  0  0  0  0  0  0  0  0  0  0
    9.9571   -4.0573   16.8866 C   0  0  0  0  0  0  0  0  0  0  0  0
    7.6213   -6.5618   16.0087 C   0  0  0  0  0  0  0  0  0  0  0  0
   10.8583   -2.6527   20.7222 C   0  0  0  0  0  0  0  0  0  0  0  0
   10.6412   -3.5089   21.7936 C   0  0  0  0  0  0  0  0  0  0  0  0
   10.4972   -3.8968   24.1589 C   0  0  0  0  0  0  0  0  0  0  0  0
    5.9260   -8.2736   16.5517 C   0  0  0  0  0  0  0  0  0  0  0  0
    3.8816   -9.1166   17.2493 C   0  0  0  0  0  0  0  0  0  0  0  0
   10.1297   -1.6575   23.2324 C   0  0  0  0  0  0  0  0  0  0  0  0
    9.4684   -1.6929   26.7263 F   0  0  0  0  0  0  0  0  0  0  0  0
    7.7963   -7.7906   17.9837 C   0  0  0  0  0  0  0  0  0  0  0  0
   10.5884   -3.0725   16.7902 O   0  0  0  0  0  0  0  0  0  0  0  0
   10.4323   -5.3494   20.3516 C   0  0  0  0  0  0  0  0  0  0  0  0
    7.1156   -7.5454   16.8218 C   0  0  0  0  0  0  0  0  0  0  0  0
   10.3885   -4.4388   19.2773 C   0  0  0  0  0  0  0  0  0  0  0  0
    4.5160   -9.3822   15.0841 C   0  0  0  0  0  0  0  0  0  0  0  0
  1  3  4  0
  1 24  4  0
  2  6  4  0
  2 15  4  0
  3  5  4  0
  3  6  4  0
  4 21  4  0
  4 29  4  0
  5 15  4  0
  5 28  1  0
  6 16  4  0
  7 18  4  0
  7 26  4  0
  8 18  1  0
  8 19  4  0
  8 22  4  0
  9 12  4  0
  9 19  4  0
 10 12  4  0
 10 22  4  0
 11 20  4  0
 11 21  4  0
 12 23  1  0
 13 20  4  0
 13 29  4  0
 14 17  4  0
 14 28  4  0
 15 25  2  0
 16 27  4  0
 17 18  4  0
 20 27  1  0
 24 27  4  0
 26 28  4  0
M  END
$$$$

 Created by Python create_sdf_string function

 29 33  0  0  0  0  0  0  0  0999 V2000
    8.8270   -7.0288   18.4251 C   0  0  0  0  0  0  0  0  0  0  0  0
    9.1576   -4.6236   15.8860 O   0  0  0  0  0  0  0  0  0  0  0  0
    9.1509   -5.9108   17.7177 C   0  0  0  0  0  0  0  0  0  0  0  0
    3.6373   -9.5349   16.0582 N   0  0  0  0  0  0  0  0  0  0  0  0
    9.9275   -4.8001   18.0438 N   0  0  0  0  0  0  0  0  0  0  0  0
    8.5908   -5.7425   16.4412 C   0  0  0  0  0  0  0  0  0  0  0  0
   10.5993   -4.8981   21.6068 C   0  0  0  0  0  0  0  0  0  0  0  0
   10.4258   -3.0106   23.0998 C   0  0  0  0  0  0  0  0  0  0  0  0
   10.2148   -3.4364   25.4200 C   0  0  0  0  0  0  0  0  0  0  0  0
    9.7853   -1.1840   24.4927 C   0  0  0  0  0  0  0  0  0  0  0  0
    5.0276   -8.5227   17.5352 C   0  0  0  0  0  0  0  0  0  0  0  0
    9.8187   -2.0895   25.5800 C   0  0  0  0  0  0  0  0  0  0  0  0
    5.6473   -8.7216   15.3158 C   0  0  0  0  0  0  0  0  0  0  0  0
   10.7581   -3.1233   19.4720 N   0  0  0  0  0  0  0  0  0  0  0  0
    9.9571   -4.0573   16.8866 C   0  0  0  0  0  0  0  0  0  0  0  0
    7.6213   -6.5618   16.0087 C   0  0  0  0  0  0  0  0  0  0  0  0
   10.8583   -2.6527   20.7222 C   0  0  0  0  0  0  0  0  0  0  0  0
   10.6412   -3.5089   21.7936 C   0  0  0  0  0  0  0  0  0  0  0  0
   10.4972   -3.8968   24.1589 C   0  0  0  0  0  0  0  0  0  0  0  0
    5.9260   -8.2736   16.5517 C   0  0  0  0  0  0  0  0  0  0  0  0
    3.8816   -9.1166   17.2493 C   0  0  0  0  0  0  0  0  0  0  0  0
   10.1297   -1.6575   23.2324 C   0  0  0  0  0  0  0  0  0  0  0  0
    9.4684   -1.6929   26.7263 F   0  0  0  0  0  0  0  0  0  0  0  0
    7.7963   -7.7906   17.9837 C   0  0  0  0  0  0  0  0  0  0  0  0
   10.5884   -3.0725   16.7902 O   0  0  0  0  0  0  0  0  0  0  0  0
   10.4323   -5.3494   20.3516 C   0  0  0  0  0  0  0  0  0  0  0  0
    7.1156   -7.5454   16.8218 C   0  0  0  0  0  0  0  0  0  0  0  0
   10.3885   -4.4388   19.2773 C   0  0  0  0  0  0  0  0  0  0  0  0
    4.5160   -9.3822   15.0841 C   0  0  0  0  0  0  0  0  0  0  0  0
  1  3  4  0
  1 24  4  0
  2  6  4  0
  2 15  4  0
  3  5  4  0
  3  6  4  0
  4 21  4  0
  4 29  4  0
  5 15  4  0
  5 28  1  0
  6 16  4  0
  7 18  4  0
  7 26  4  0
  8 18  1  0
  8 19  4  0
  8 22  4  0
  9 12  4  0
  9 19  4  0
 10 12  4  0
 10 22  4  0
 11 20  4  0
 11 21  4  0
 12 23  1  0
 13 20  4  0
 13 29  4  0
 14 17  4  0
 14 28  4  0
 15 25  2  0
 16 27  4  0
 17 18  4  0
 20 27  1  0
 24 27  4  0
 26 28  4  0
M  END
$$$$

 Created by Python create_sdf_string function

 29 33  0  0  0  0  0  0  0  0999 V2000
    8.8270   -7.0288   18.4251 C   0  0  0  0  0  0  0  0  0  0  0  0
    9.1576   -4.6236   15.8860 O   0  0  0  0  0  0  0  0  0  0  0  0
    9.1509   -5.9108   17.7177 C   0  0  0  0  0  0  0  0  0  0  0  0
    3.6373   -9.5349   16.0582 N   0  0  0  0  0  0  0  0  0  0  0  0
    9.9275   -4.8001   18.0438 N   0  0  0  0  0  0  0  0  0  0  0  0
    8.5908   -5.7425   16.4412 C   0  0  0  0  0  0  0  0  0  0  0  0
   10.5993   -4.8981   21.6068 C   0  0  0  0  0  0  0  0  0  0  0  0
   10.4258   -3.0106   23.0998 C   0  0  0  0  0  0  0  0  0  0  0  0
   10.2148   -3.4364   25.4200 C   0  0  0  0  0  0  0  0  0  0  0  0
    9.7853   -1.1840   24.4927 C   0  0  0  0  0  0  0  0  0  0  0  0
    5.0276   -8.5227   17.5352 C   0  0  0  0  0  0  0  0  0  0  0  0
    9.8187   -2.0895   25.5800 C   0  0  0  0  0  0  0  0  0  0  0  0
    5.6473   -8.7216   15.3158 C   0  0  0  0  0  0  0  0  0  0  0  0
   10.7581   -3.1233   19.4720 N   0  0  0  0  0  0  0  0  0  0  0  0
    9.9571   -4.0573   16.8866 C   0  0  0  0  0  0  0  0  0  0  0  0
    7.6213   -6.5618   16.0087 C   0  0  0  0  0  0  0  0  0  0  0  0
   10.8583   -2.6527   20.7222 C   0  0  0  0  0  0  0  0  0  0  0  0
   10.6412   -3.5089   21.7936 C   0  0  0  0  0  0  0  0  0  0  0  0
   10.4972   -3.8968   24.1589 C   0  0  0  0  0  0  0  0  0  0  0  0
    5.9260   -8.2736   16.5517 C   0  0  0  0  0  0  0  0  0  0  0  0
    3.8816   -9.1166   17.2493 C   0  0  0  0  0  0  0  0  0  0  0  0
   10.1297   -1.6575   23.2324 C   0  0  0  0  0  0  0  0  0  0  0  0
    9.4684   -1.6929   26.7263 F   0  0  0  0  0  0  0  0  0  0  0  0
    7.7963   -7.7906   17.9837 C   0  0  0  0  0  0  0  0  0  0  0  0
   10.5884   -3.0725   16.7902 O   0  0  0  0  0  0  0  0  0  0  0  0
   10.4323   -5.3494   20.3516 C   0  0  0  0  0  0  0  0  0  0  0  0
    7.1156   -7.5454   16.8218 C   0  0  0  0  0  0  0  0  0  0  0  0
   10.3885   -4.4388   19.2773 C   0  0  0  0  0  0  0  0  0  0  0  0
    4.5160   -9.3822   15.0841 C   0  0  0  0  0  0  0  0  0  0  0  0
  1  3  4  0
  1 24  4  0
  2  6  4  0
  2 15  4  0
  3  5  4  0
  3  6  4  0
  4 21  4  0
  4 29  4  0
  5 15  4  0
  5 28  1  0
  6 16  4  0
  7 18  4  0
  7 26  4  0
  8 18  1  0
  8 19  4  0
  8 22  4  0
  9 12  4  0
  9 19  4  0
 10 12  4  0
 10 22  4  0
 11 20  4  0
 11 21  4  0
 12 23  1  0
 13 20  4  0
 13 29  4  0
 14 17  4  0
 14 28  4  0
 15 25  2  0
 16 27  4  0
 17 18  4  0
 20 27  1  0
 24 27  4  0
 26 28  4  0
M  END
$$$$

 Created by Python create_sdf_string function

 29 33  0  0  0  0  0  0  0  0999 V2000
    8.8270   -7.0288   18.4251 C   0  0  0  0  0  0  0  0  0  0  0  0
    9.1576   -4.6236   15.8860 O   0  0  0  0  0  0  0  0  0  0  0  0
    9.1509   -5.9108   17.7177 C   0  0  0  0  0  0  0  0  0  0  0  0
    3.6373   -9.5349   16.0582 N   0  0  0  0  0  0  0  0  0  0  0  0
    9.9275   -4.8001   18.0438 N   0  0  0  0  0  0  0  0  0  0  0  0
    8.5908   -5.7425   16.4412 C   0  0  0  0  0  0  0  0  0  0  0  0
   10.5993   -4.8981   21.6068 C   0  0  0  0  0  0  0  0  0  0  0  0
   10.4258   -3.0106   23.0998 C   0  0  0  0  0  0  0  0  0  0  0  0
   10.2148   -3.4364   25.4200 C   0  0  0  0  0  0  0  0  0  0  0  0
    9.7853   -1.1840   24.4927 C   0  0  0  0  0  0  0  0  0  0  0  0
    5.0276   -8.5227   17.5352 C   0  0  0  0  0  0  0  0  0  0  0  0
    9.8187   -2.0895   25.5800 C   0  0  0  0  0  0  0  0  0  0  0  0
    5.6473   -8.7216   15.3158 C   0  0  0  0  0  0  0  0  0  0  0  0
   10.7581   -3.1233   19.4720 N   0  0  0  0  0  0  0  0  0  0  0  0
    9.9571   -4.0573   16.8866 C   0  0  0  0  0  0  0  0  0  0  0  0
    7.6213   -6.5618   16.0087 C   0  0  0  0  0  0  0  0  0  0  0  0
   10.8583   -2.6527   20.7222 C   0  0  0  0  0  0  0  0  0  0  0  0
   10.6412   -3.5089   21.7936 C   0  0  0  0  0  0  0  0  0  0  0  0
   10.4972   -3.8968   24.1589 C   0  0  0  0  0  0  0  0  0  0  0  0
    5.9260   -8.2736   16.5517 C   0  0  0  0  0  0  0  0  0  0  0  0
    3.8816   -9.1166   17.2493 C   0  0  0  0  0  0  0  0  0  0  0  0
   10.1297   -1.6575   23.2324 C   0  0  0  0  0  0  0  0  0  0  0  0
    9.4684   -1.6929   26.7263 F   0  0  0  0  0  0  0  0  0  0  0  0
    7.7963   -7.7906   17.9837 C   0  0  0  0  0  0  0  0  0  0  0  0
   10.5884   -3.0725   16.7902 O   0  0  0  0  0  0  0  0  0  0  0  0
   10.4323   -5.3494   20.3516 C   0  0  0  0  0  0  0  0  0  0  0  0
    7.1156   -7.5454   16.8218 C   0  0  0  0  0  0  0  0  0  0  0  0
   10.3885   -4.4388   19.2773 C   0  0  0  0  0  0  0  0  0  0  0  0
    4.5160   -9.3822   15.0841 C   0  0  0  0  0  0  0  0  0  0  0  0
  1  3  4  0
  1 24  4  0
  2  6  4  0
  2 15  4  0
  3  5  4  0
  3  6  4  0
  4 21  4  0
  4 29  4  0
  5 15  4  0
  5 28  1  0
  6 16  4  0
  7 18  4  0
  7 26  4  0
  8 18  1  0
  8 19  4  0
  8 22  4  0
  9 12  4  0
  9 19  4  0
 10 12  4  0
 10 22  4  0
 11 20  4  0
 11 21  4  0
 12 23  1  0
 13 20  4  0
 13 29  4  0
 14 17  4  0
 14 28  4  0
 15 25  2  0
 16 27  4  0
 17 18  4  0
 20 27  1  0
 24 27  4  0
 26 28  4  0
M  END
$$$$

 Created by Python create_sdf_string function

 29 33  0  0  0  0  0  0  0  0999 V2000
    8.8270   -7.0288   18.4251 C   0  0  0  0  0  0  0  0  0  0  0  0
    9.1576   -4.6236   15.8860 O   0  0  0  0  0  0  0  0  0  0  0  0
    9.1509   -5.9108   17.7177 C   0  0  0  0  0  0  0  0  0  0  0  0
    3.6373   -9.5349   16.0582 N   0  0  0  0  0  0  0  0  0  0  0  0
    9.9275   -4.8001   18.0438 N   0  0  0  0  0  0  0  0  0  0  0  0
    8.5908   -5.7425   16.4412 C   0  0  0  0  0  0  0  0  0  0  0  0
   10.5993   -4.8981   21.6068 C   0  0  0  0  0  0  0  0  0  0  0  0
   10.4258   -3.0106   23.0998 C   0  0  0  0  0  0  0  0  0  0  0  0
   10.2148   -3.4364   25.4200 C   0  0  0  0  0  0  0  0  0  0  0  0
    9.7853   -1.1840   24.4927 C   0  0  0  0  0  0  0  0  0  0  0  0
    5.0276   -8.5227   17.5352 C   0  0  0  0  0  0  0  0  0  0  0  0
    9.8187   -2.0895   25.5800 C   0  0  0  0  0  0  0  0  0  0  0  0
    5.6473   -8.7216   15.3158 C   0  0  0  0  0  0  0  0  0  0  0  0
   10.7581   -3.1233   19.4720 N   0  0  0  0  0  0  0  0  0  0  0  0
    9.9571   -4.0573   16.8866 C   0  0  0  0  0  0  0  0  0  0  0  0
    7.6213   -6.5618   16.0087 C   0  0  0  0  0  0  0  0  0  0  0  0
   10.8583   -2.6527   20.7222 C   0  0  0  0  0  0  0  0  0  0  0  0
   10.6412   -3.5089   21.7936 C   0  0  0  0  0  0  0  0  0  0  0  0
   10.4972   -3.8968   24.1589 C   0  0  0  0  0  0  0  0  0  0  0  0
    5.9260   -8.2736   16.5517 C   0  0  0  0  0  0  0  0  0  0  0  0
    3.8816   -9.1166   17.2493 C   0  0  0  0  0  0  0  0  0  0  0  0
   10.1297   -1.6575   23.2324 C   0  0  0  0  0  0  0  0  0  0  0  0
    9.4684   -1.6929   26.7263 F   0  0  0  0  0  0  0  0  0  0  0  0
    7.7963   -7.7906   17.9837 C   0  0  0  0  0  0  0  0  0  0  0  0
   10.5884   -3.0725   16.7902 O   0  0  0  0  0  0  0  0  0  0  0  0
   10.4323   -5.3494   20.3516 C   0  0  0  0  0  0  0  0  0  0  0  0
    7.1156   -7.5454   16.8218 C   0  0  0  0  0  0  0  0  0  0  0  0
   10.3885   -4.4388   19.2773 C   0  0  0  0  0  0  0  0  0  0  0  0
    4.5160   -9.3822   15.0841 C   0  0  0  0  0  0  0  0  0  0  0  0
  1  3  4  0
  1 24  4  0
  2  6  4  0
  2 15  4  0
  3  5  4  0
  3  6  4  0
  4 21  4  0
  4 29  4  0
  5 15  4  0
  5 28  1  0
  6 16  4  0
  7 18  4  0
  7 26  4  0
  8 18  1  0
  8 19  4  0
  8 22  4  0
  9 12  4  0
  9 19  4  0
 10 12  4  0
 10 22  4  0
 11 20  4  0
 11 21  4  0
 12 23  1  0
 13 20  4  0
 13 29  4  0
 14 17  4  0
 14 28  4  0
 15 25  2  0
 16 27  4  0
 17 18  4  0
 20 27  1  0
 24 27  4  0
 26 28  4  0
M  END
$$$$

 Created by Python create_sdf_string function

 29 33  0  0  0  0  0  0  0  0999 V2000
    8.8270   -7.0288   18.4251 C   0  0  0  0  0  0  0  0  0  0  0  0
    9.1576   -4.6236   15.8860 O   0  0  0  0  0  0  0  0  0  0  0  0
    9.1509   -5.9108   17.7177 C   0  0  0  0  0  0  0  0  0  0  0  0
    3.6373   -9.5349   16.0582 N   0  0  0  0  0  0  0  0  0  0  0  0
    9.9275   -4.8001   18.0438 N   0  0  0  0  0  0  0  0  0  0  0  0
    8.5908   -5.7425   16.4412 C   0  0  0  0  0  0  0  0  0  0  0  0
   10.5993   -4.8981   21.6068 C   0  0  0  0  0  0  0  0  0  0  0  0
   10.4258   -3.0106   23.0998 C   0  0  0  0  0  0  0  0  0  0  0  0
   10.2148   -3.4364   25.4200 C   0  0  0  0  0  0  0  0  0  0  0  0
    9.7853   -1.1840   24.4927 C   0  0  0  0  0  0  0  0  0  0  0  0
    5.0276   -8.5227   17.5352 C   0  0  0  0  0  0  0  0  0  0  0  0
    9.8187   -2.0895   25.5800 C   0  0  0  0  0  0  0  0  0  0  0  0
    5.6473   -8.7216   15.3158 C   0  0  0  0  0  0  0  0  0  0  0  0
   10.7581   -3.1233   19.4720 N   0  0  0  0  0  0  0  0  0  0  0  0
    9.9571   -4.0573   16.8866 C   0  0  0  0  0  0  0  0  0  0  0  0
    7.6213   -6.5618   16.0087 C   0  0  0  0  0  0  0  0  0  0  0  0
   10.8583   -2.6527   20.7222 C   0  0  0  0  0  0  0  0  0  0  0  0
   10.6412   -3.5089   21.7936 C   0  0  0  0  0  0  0  0  0  0  0  0
   10.4972   -3.8968   24.1589 C   0  0  0  0  0  0  0  0  0  0  0  0
    5.9260   -8.2736   16.5517 C   0  0  0  0  0  0  0  0  0  0  0  0
    3.8816   -9.1166   17.2493 C   0  0  0  0  0  0  0  0  0  0  0  0
   10.1297   -1.6575   23.2324 C   0  0  0  0  0  0  0  0  0  0  0  0
    9.4684   -1.6929   26.7263 F   0  0  0  0  0  0  0  0  0  0  0  0
    7.7963   -7.7906   17.9837 C   0  0  0  0  0  0  0  0  0  0  0  0
   10.5884   -3.0725   16.7902 O   0  0  0  0  0  0  0  0  0  0  0  0
   10.4323   -5.3494   20.3516 C   0  0  0  0  0  0  0  0  0  0  0  0
    7.1156   -7.5454   16.8218 C   0  0  0  0  0  0  0  0  0  0  0  0
   10.3885   -4.4388   19.2773 C   0  0  0  0  0  0  0  0  0  0  0  0
    4.5160   -9.3822   15.0841 C   0  0  0  0  0  0  0  0  0  0  0  0
  1  3  4  0
  1 24  4  0
  2  6  4  0
  2 15  4  0
  3  5  4  0
  3  6  4  0
  4 21  4  0
  4 29  4  0
  5 15  4  0
  5 28  1  0
  6 16  4  0
  7 18  4  0
  7 26  4  0
  8 18  1  0
  8 19  4  0
  8 22  4  0
  9 12  4  0
  9 19  4  0
 10 12  4  0
 10 22  4  0
 11 20  4  0
 11 21  4  0
 12 23  1  0
 13 20  4  0
 13 29  4  0
 14 17  4  0
 14 28  4  0
 15 25  2  0
 16 27  4  0
 17 18  4  0
 20 27  1  0
 24 27  4  0
 26 28  4  0
M  END
$$$$

 Created by Python create_sdf_string function

 29 33  0  0  0  0  0  0  0  0999 V2000
    8.8270   -7.0288   18.4251 C   0  0  0  0  0  0  0  0  0  0  0  0
    9.1576   -4.6236   15.8860 O   0  0  0  0  0  0  0  0  0  0  0  0
    9.1509   -5.9108   17.7177 C   0  0  0  0  0  0  0  0  0  0  0  0
    3.6373   -9.5349   16.0582 N   0  0  0  0  0  0  0  0  0  0  0  0
    9.9275   -4.8001   18.0438 N   0  0  0  0  0  0  0  0  0  0  0  0
    8.5908   -5.7425   16.4412 C   0  0  0  0  0  0  0  0  0  0  0  0
   10.5993   -4.8981   21.6068 C   0  0  0  0  0  0  0  0  0  0  0  0
   10.4258   -3.0106   23.0998 C   0  0  0  0  0  0  0  0  0  0  0  0
   10.2148   -3.4364   25.4200 C   0  0  0  0  0  0  0  0  0  0  0  0
    9.7853   -1.1840   24.4927 C   0  0  0  0  0  0  0  0  0  0  0  0
    5.0276   -8.5227   17.5352 C   0  0  0  0  0  0  0  0  0  0  0  0
    9.8187   -2.0895   25.5800 C   0  0  0  0  0  0  0  0  0  0  0  0
    5.6473   -8.7216   15.3158 C   0  0  0  0  0  0  0  0  0  0  0  0
   10.7581   -3.1233   19.4720 N   0  0  0  0  0  0  0  0  0  0  0  0
    9.9571   -4.0573   16.8866 C   0  0  0  0  0  0  0  0  0  0  0  0
    7.6213   -6.5618   16.0087 C   0  0  0  0  0  0  0  0  0  0  0  0
   10.8583   -2.6527   20.7222 C   0  0  0  0  0  0  0  0  0  0  0  0
   10.6412   -3.5089   21.7936 C   0  0  0  0  0  0  0  0  0  0  0  0
   10.4972   -3.8968   24.1589 C   0  0  0  0  0  0  0  0  0  0  0  0
    5.9260   -8.2736   16.5517 C   0  0  0  0  0  0  0  0  0  0  0  0
    3.8816   -9.1166   17.2493 C   0  0  0  0  0  0  0  0  0  0  0  0
   10.1297   -1.6575   23.2324 C   0  0  0  0  0  0  0  0  0  0  0  0
    9.4684   -1.6929   26.7263 F   0  0  0  0  0  0  0  0  0  0  0  0
    7.7963   -7.7906   17.9837 C   0  0  0  0  0  0  0  0  0  0  0  0
   10.5884   -3.0725   16.7902 O   0  0  0  0  0  0  0  0  0  0  0  0
   10.4323   -5.3494   20.3516 C   0  0  0  0  0  0  0  0  0  0  0  0
    7.1156   -7.5454   16.8218 C   0  0  0  0  0  0  0  0  0  0  0  0
   10.3885   -4.4388   19.2773 C   0  0  0  0  0  0  0  0  0  0  0  0
    4.5160   -9.3822   15.0841 C   0  0  0  0  0  0  0  0  0  0  0  0
  1  3  4  0
  1 24  4  0
  2  6  4  0
  2 15  4  0
  3  5  4  0
  3  6  4  0
  4 21  4  0
  4 29  4  0
  5 15  4  0
  5 28  1  0
  6 16  4  0
  7 18  4  0
  7 26  4  0
  8 18  1  0
  8 19  4  0
  8 22  4  0
  9 12  4  0
  9 19  4  0
 10 12  4  0
 10 22  4  0
 11 20  4  0
 11 21  4  0
 12 23  1  0
 13 20  4  0
 13 29  4  0
 14 17  4  0
 14 28  4  0
 15 25  2  0
 16 27  4  0
 17 18  4  0
 20 27  1  0
 24 27  4  0
 26 28  4  0
M  END
$$$$

 Created by Python create_sdf_string function

 29 33  0  0  0  0  0  0  0  0999 V2000
    8.8270   -7.0288   18.4251 C   0  0  0  0  0  0  0  0  0  0  0  0
    9.1576   -4.6236   15.8860 O   0  0  0  0  0  0  0  0  0  0  0  0
    9.1509   -5.9108   17.7177 C   0  0  0  0  0  0  0  0  0  0  0  0
    3.6373   -9.5349   16.0582 N   0  0  0  0  0  0  0  0  0  0  0  0
    9.9275   -4.8001   18.0438 N   0  0  0  0  0  0  0  0  0  0  0  0
    8.5908   -5.7425   16.4412 C   0  0  0  0  0  0  0  0  0  0  0  0
   10.5993   -4.8981   21.6068 C   0  0  0  0  0  0  0  0  0  0  0  0
   10.4258   -3.0106   23.0998 C   0  0  0  0  0  0  0  0  0  0  0  0
   10.2148   -3.4364   25.4200 C   0  0  0  0  0  0  0  0  0  0  0  0
    9.7853   -1.1840   24.4927 C   0  0  0  0  0  0  0  0  0  0  0  0
    5.0276   -8.5227   17.5352 C   0  0  0  0  0  0  0  0  0  0  0  0
    9.8187   -2.0895   25.5800 C   0  0  0  0  0  0  0  0  0  0  0  0
    5.6473   -8.7216   15.3158 C   0  0  0  0  0  0  0  0  0  0  0  0
   10.7581   -3.1233   19.4720 N   0  0  0  0  0  0  0  0  0  0  0  0
    9.9571   -4.0573   16.8866 C   0  0  0  0  0  0  0  0  0  0  0  0
    7.6213   -6.5618   16.0087 C   0  0  0  0  0  0  0  0  0  0  0  0
   10.8583   -2.6527   20.7222 C   0  0  0  0  0  0  0  0  0  0  0  0
   10.6412   -3.5089   21.7936 C   0  0  0  0  0  0  0  0  0  0  0  0
   10.4972   -3.8968   24.1589 C   0  0  0  0  0  0  0  0  0  0  0  0
    5.9260   -8.2736   16.5517 C   0  0  0  0  0  0  0  0  0  0  0  0
    3.8816   -9.1166   17.2493 C   0  0  0  0  0  0  0  0  0  0  0  0
   10.1297   -1.6575   23.2324 C   0  0  0  0  0  0  0  0  0  0  0  0
    9.4684   -1.6929   26.7263 F   0  0  0  0  0  0  0  0  0  0  0  0
    7.7963   -7.7906   17.9837 C   0  0  0  0  0  0  0  0  0  0  0  0
   10.5884   -3.0725   16.7902 O   0  0  0  0  0  0  0  0  0  0  0  0
   10.4323   -5.3494   20.3516 C   0  0  0  0  0  0  0  0  0  0  0  0
    7.1156   -7.5454   16.8218 C   0  0  0  0  0  0  0  0  0  0  0  0
   10.3885   -4.4388   19.2773 C   0  0  0  0  0  0  0  0  0  0  0  0
    4.5160   -9.3822   15.0841 C   0  0  0  0  0  0  0  0  0  0  0  0
  1  3  4  0
  1 24  4  0
  2  6  4  0
  2 15  4  0
  3  5  4  0
  3  6  4  0
  4 21  4  0
  4 29  4  0
  5 15  4  0
  5 28  1  0
  6 16  4  0
  7 18  4  0
  7 26  4  0
  8 18  1  0
  8 19  4  0
  8 22  4  0
  9 12  4  0
  9 19  4  0
 10 12  4  0
 10 22  4  0
 11 20  4  0
 11 21  4  0
 12 23  1  0
 13 20  4  0
 13 29  4  0
 14 17  4  0
 14 28  4  0
 15 25  2  0
 16 27  4  0
 17 18  4  0
 20 27  1  0
 24 27  4  0
 26 28  4  0
M  END
$$$$

 Created by Python create_sdf_string function

 29 33  0  0  0  0  0  0  0  0999 V2000
    8.8270   -7.0288   18.4251 C   0  0  0  0  0  0  0  0  0  0  0  0
    9.1576   -4.6236   15.8860 O   0  0  0  0  0  0  0  0  0  0  0  0
    9.1509   -5.9108   17.7177 C   0  0  0  0  0  0  0  0  0  0  0  0
    3.6373   -9.5349   16.0582 N   0  0  0  0  0  0  0  0  0  0  0  0
    9.9275   -4.8001   18.0438 N   0  0  0  0  0  0  0  0  0  0  0  0
    8.5908   -5.7425   16.4412 C   0  0  0  0  0  0  0  0  0  0  0  0
   10.5993   -4.8981   21.6068 C   0  0  0  0  0  0  0  0  0  0  0  0
   10.4258   -3.0106   23.0998 C   0  0  0  0  0  0  0  0  0  0  0  0
   10.2148   -3.4364   25.4200 C   0  0  0  0  0  0  0  0  0  0  0  0
    9.7853   -1.1840   24.4927 C   0  0  0  0  0  0  0  0  0  0  0  0
    5.0276   -8.5227   17.5352 C   0  0  0  0  0  0  0  0  0  0  0  0
    9.8187   -2.0895   25.5800 C   0  0  0  0  0  0  0  0  0  0  0  0
    5.6473   -8.7216   15.3158 C   0  0  0  0  0  0  0  0  0  0  0  0
   10.7581   -3.1233   19.4720 N   0  0  0  0  0  0  0  0  0  0  0  0
    9.9571   -4.0573   16.8866 C   0  0  0  0  0  0  0  0  0  0  0  0
    7.6213   -6.5618   16.0087 C   0  0  0  0  0  0  0  0  0  0  0  0
   10.8583   -2.6527   20.7222 C   0  0  0  0  0  0  0  0  0  0  0  0
   10.6412   -3.5089   21.7936 C   0  0  0  0  0  0  0  0  0  0  0  0
   10.4972   -3.8968   24.1589 C   0  0  0  0  0  0  0  0  0  0  0  0
    5.9260   -8.2736   16.5517 C   0  0  0  0  0  0  0  0  0  0  0  0
    3.8816   -9.1166   17.2493 C   0  0  0  0  0  0  0  0  0  0  0  0
   10.1297   -1.6575   23.2324 C   0  0  0  0  0  0  0  0  0  0  0  0
    9.4684   -1.6929   26.7263 F   0  0  0  0  0  0  0  0  0  0  0  0
    7.7963   -7.7906   17.9837 C   0  0  0  0  0  0  0  0  0  0  0  0
   10.5884   -3.0725   16.7902 O   0  0  0  0  0  0  0  0  0  0  0  0
   10.4323   -5.3494   20.3516 C   0  0  0  0  0  0  0  0  0  0  0  0
    7.1156   -7.5454   16.8218 C   0  0  0  0  0  0  0  0  0  0  0  0
   10.3885   -4.4388   19.2773 C   0  0  0  0  0  0  0  0  0  0  0  0
    4.5160   -9.3822   15.0841 C   0  0  0  0  0  0  0  0  0  0  0  0
  1  3  4  0
  1 24  4  0
  2  6  4  0
  2 15  4  0
  3  5  4  0
  3  6  4  0
  4 21  4  0
  4 29  4  0
  5 15  4  0
  5 28  1  0
  6 16  4  0
  7 18  4  0
  7 26  4  0
  8 18  1  0
  8 19  4  0
  8 22  4  0
  9 12  4  0
  9 19  4  0
 10 12  4  0
 10 22  4  0
 11 20  4  0
 11 21  4  0
 12 23  1  0
 13 20  4  0
 13 29  4  0
 14 17  4  0
 14 28  4  0
 15 25  2  0
 16 27  4  0
 17 18  4  0
 20 27  1  0
 24 27  4  0
 26 28  4  0
M  END
$$$$

 Created by Python create_sdf_string function

 29 33  0  0  0  0  0  0  0  0999 V2000
    8.8270   -7.0288   18.4251 C   0  0  0  0  0  0  0  0  0  0  0  0
    9.1576   -4.6236   15.8860 O   0  0  0  0  0  0  0  0  0  0  0  0
    9.1509   -5.9108   17.7177 C   0  0  0  0  0  0  0  0  0  0  0  0
    3.6373   -9.5349   16.0582 N   0  0  0  0  0  0  0  0  0  0  0  0
    9.9275   -4.8001   18.0438 N   0  0  0  0  0  0  0  0  0  0  0  0
    8.5908   -5.7425   16.4412 C   0  0  0  0  0  0  0  0  0  0  0  0
   10.5993   -4.8981   21.6068 C   0  0  0  0  0  0  0  0  0  0  0  0
   10.4258   -3.0106   23.0998 C   0  0  0  0  0  0  0  0  0  0  0  0
   10.2148   -3.4364   25.4200 C   0  0  0  0  0  0  0  0  0  0  0  0
    9.7853   -1.1840   24.4927 C   0  0  0  0  0  0  0  0  0  0  0  0
    5.0276   -8.5227   17.5352 C   0  0  0  0  0  0  0  0  0  0  0  0
    9.8187   -2.0895   25.5800 C   0  0  0  0  0  0  0  0  0  0  0  0
    5.6473   -8.7216   15.3158 C   0  0  0  0  0  0  0  0  0  0  0  0
   10.7581   -3.1233   19.4720 N   0  0  0  0  0  0  0  0  0  0  0  0
    9.9571   -4.0573   16.8866 C   0  0  0  0  0  0  0  0  0  0  0  0
    7.6213   -6.5618   16.0087 C   0  0  0  0  0  0  0  0  0  0  0  0
   10.8583   -2.6527   20.7222 C   0  0  0  0  0  0  0  0  0  0  0  0
   10.6412   -3.5089   21.7936 C   0  0  0  0  0  0  0  0  0  0  0  0
   10.4972   -3.8968   24.1589 C   0  0  0  0  0  0  0  0  0  0  0  0
    5.9260   -8.2736   16.5517 C   0  0  0  0  0  0  0  0  0  0  0  0
    3.8816   -9.1166   17.2493 C   0  0  0  0  0  0  0  0  0  0  0  0
   10.1297   -1.6575   23.2324 C   0  0  0  0  0  0  0  0  0  0  0  0
    9.4684   -1.6929   26.7263 F   0  0  0  0  0  0  0  0  0  0  0  0
    7.7963   -7.7906   17.9837 C   0  0  0  0  0  0  0  0  0  0  0  0
   10.5884   -3.0725   16.7902 O   0  0  0  0  0  0  0  0  0  0  0  0
   10.4323   -5.3494   20.3516 C   0  0  0  0  0  0  0  0  0  0  0  0
    7.1156   -7.5454   16.8218 C   0  0  0  0  0  0  0  0  0  0  0  0
   10.3885   -4.4388   19.2773 C   0  0  0  0  0  0  0  0  0  0  0  0
    4.5160   -9.3822   15.0841 C   0  0  0  0  0  0  0  0  0  0  0  0
  1  3  4  0
  1 24  4  0
  2  6  4  0
  2 15  4  0
  3  5  4  0
  3  6  4  0
  4 21  4  0
  4 29  4  0
  5 15  4  0
  5 28  1  0
  6 16  4  0
  7 18  4  0
  7 26  4  0
  8 18  1  0
  8 19  4  0
  8 22  4  0
  9 12  4  0
  9 19  4  0
 10 12  4  0
 10 22  4  0
 11 20  4  0
 11 21  4  0
 12 23  1  0
 13 20  4  0
 13 29  4  0
 14 17  4  0
 14 28  4  0
 15 25  2  0
 16 27  4  0
 17 18  4  0
 20 27  1  0
 24 27  4  0
 26 28  4  0
M  END
$$$$

 Created by Python create_sdf_string function

 29 33  0  0  0  0  0  0  0  0999 V2000
    8.8270   -7.0288   18.4251 C   0  0  0  0  0  0  0  0  0  0  0  0
    9.1576   -4.6236   15.8860 O   0  0  0  0  0  0  0  0  0  0  0  0
    9.1509   -5.9108   17.7177 C   0  0  0  0  0  0  0  0  0  0  0  0
    3.6373   -9.5349   16.0582 N   0  0  0  0  0  0  0  0  0  0  0  0
    9.9275   -4.8001   18.0438 N   0  0  0  0  0  0  0  0  0  0  0  0
    8.5908   -5.7425   16.4412 C   0  0  0  0  0  0  0  0  0  0  0  0
   10.5993   -4.8981   21.6068 C   0  0  0  0  0  0  0  0  0  0  0  0
   10.4258   -3.0106   23.0998 C   0  0  0  0  0  0  0  0  0  0  0  0
   10.2148   -3.4364   25.4200 C   0  0  0  0  0  0  0  0  0  0  0  0
    9.7853   -1.1840   24.4927 C   0  0  0  0  0  0  0  0  0  0  0  0
    5.0276   -8.5227   17.5352 C   0  0  0  0  0  0  0  0  0  0  0  0
    9.8187   -2.0895   25.5800 C   0  0  0  0  0  0  0  0  0  0  0  0
    5.6473   -8.7216   15.3158 C   0  0  0  0  0  0  0  0  0  0  0  0
   10.7581   -3.1233   19.4720 N   0  0  0  0  0  0  0  0  0  0  0  0
    9.9571   -4.0573   16.8866 C   0  0  0  0  0  0  0  0  0  0  0  0
    7.6213   -6.5618   16.0087 C   0  0  0  0  0  0  0  0  0  0  0  0
   10.8583   -2.6527   20.7222 C   0  0  0  0  0  0  0  0  0  0  0  0
   10.6412   -3.5089   21.7936 C   0  0  0  0  0  0  0  0  0  0  0  0
   10.4972   -3.8968   24.1589 C   0  0  0  0  0  0  0  0  0  0  0  0
    5.9260   -8.2736   16.5517 C   0  0  0  0  0  0  0  0  0  0  0  0
    3.8816   -9.1166   17.2493 C   0  0  0  0  0  0  0  0  0  0  0  0
   10.1297   -1.6575   23.2324 C   0  0  0  0  0  0  0  0  0  0  0  0
    9.4684   -1.6929   26.7263 F   0  0  0  0  0  0  0  0  0  0  0  0
    7.7963   -7.7906   17.9837 C   0  0  0  0  0  0  0  0  0  0  0  0
   10.5884   -3.0725   16.7902 O   0  0  0  0  0  0  0  0  0  0  0  0
   10.4323   -5.3494   20.3516 C   0  0  0  0  0  0  0  0  0  0  0  0
    7.1156   -7.5454   16.8218 C   0  0  0  0  0  0  0  0  0  0  0  0
   10.3885   -4.4388   19.2773 C   0  0  0  0  0  0  0  0  0  0  0  0
    4.5160   -9.3822   15.0841 C   0  0  0  0  0  0  0  0  0  0  0  0
  1  3  4  0
  1 24  4  0
  2  6  4  0
  2 15  4  0
  3  5  4  0
  3  6  4  0
  4 21  4  0
  4 29  4  0
  5 15  4  0
  5 28  1  0
  6 16  4  0
  7 18  4  0
  7 26  4  0
  8 18  1  0
  8 19  4  0
  8 22  4  0
  9 12  4  0
  9 19  4  0
 10 12  4  0
 10 22  4  0
 11 20  4  0
 11 21  4  0
 12 23  1  0
 13 20  4  0
 13 29  4  0
 14 17  4  0
 14 28  4  0
 15 25  2  0
 16 27  4  0
 17 18  4  0
 20 27  1  0
 24 27  4  0
 26 28  4  0
M  END
$$$$

 Created by Python create_sdf_string function

 29 33  0  0  0  0  0  0  0  0999 V2000
    8.8270   -7.0288   18.4251 C   0  0  0  0  0  0  0  0  0  0  0  0
    9.1576   -4.6236   15.8860 O   0  0  0  0  0  0  0  0  0  0  0  0
    9.1509   -5.9108   17.7177 C   0  0  0  0  0  0  0  0  0  0  0  0
    3.6373   -9.5349   16.0582 N   0  0  0  0  0  0  0  0  0  0  0  0
    9.9275   -4.8001   18.0438 N   0  0  0  0  0  0  0  0  0  0  0  0
    8.5908   -5.7425   16.4412 C   0  0  0  0  0  0  0  0  0  0  0  0
   10.5993   -4.8981   21.6068 C   0  0  0  0  0  0  0  0  0  0  0  0
   10.4258   -3.0106   23.0998 C   0  0  0  0  0  0  0  0  0  0  0  0
   10.2148   -3.4364   25.4200 C   0  0  0  0  0  0  0  0  0  0  0  0
    9.7853   -1.1840   24.4927 C   0  0  0  0  0  0  0  0  0  0  0  0
    5.0276   -8.5227   17.5352 C   0  0  0  0  0  0  0  0  0  0  0  0
    9.8187   -2.0895   25.5800 C   0  0  0  0  0  0  0  0  0  0  0  0
    5.6473   -8.7216   15.3158 C   0  0  0  0  0  0  0  0  0  0  0  0
   10.7581   -3.1233   19.4720 N   0  0  0  0  0  0  0  0  0  0  0  0
    9.9571   -4.0573   16.8866 C   0  0  0  0  0  0  0  0  0  0  0  0
    7.6213   -6.5618   16.0087 C   0  0  0  0  0  0  0  0  0  0  0  0
   10.8583   -2.6527   20.7222 C   0  0  0  0  0  0  0  0  0  0  0  0
   10.6412   -3.5089   21.7936 C   0  0  0  0  0  0  0  0  0  0  0  0
   10.4972   -3.8968   24.1589 C   0  0  0  0  0  0  0  0  0  0  0  0
    5.9260   -8.2736   16.5517 C   0  0  0  0  0  0  0  0  0  0  0  0
    3.8816   -9.1166   17.2493 C   0  0  0  0  0  0  0  0  0  0  0  0
   10.1297   -1.6575   23.2324 C   0  0  0  0  0  0  0  0  0  0  0  0
    9.4684   -1.6929   26.7263 F   0  0  0  0  0  0  0  0  0  0  0  0
    7.7963   -7.7906   17.9837 C   0  0  0  0  0  0  0  0  0  0  0  0
   10.5884   -3.0725   16.7902 O   0  0  0  0  0  0  0  0  0  0  0  0
   10.4323   -5.3494   20.3516 C   0  0  0  0  0  0  0  0  0  0  0  0
    7.1156   -7.5454   16.8218 C   0  0  0  0  0  0  0  0  0  0  0  0
   10.3885   -4.4388   19.2773 C   0  0  0  0  0  0  0  0  0  0  0  0
    4.5160   -9.3822   15.0841 C   0  0  0  0  0  0  0  0  0  0  0  0
  1  3  4  0
  1 24  4  0
  2  6  4  0
  2 15  4  0
  3  5  4  0
  3  6  4  0
  4 21  4  0
  4 29  4  0
  5 15  4  0
  5 28  1  0
  6 16  4  0
  7 18  4  0
  7 26  4  0
  8 18  1  0
  8 19  4  0
  8 22  4  0
  9 12  4  0
  9 19  4  0
 10 12  4  0
 10 22  4  0
 11 20  4  0
 11 21  4  0
 12 23  1  0
 13 20  4  0
 13 29  4  0
 14 17  4  0
 14 28  4  0
 15 25  2  0
 16 27  4  0
 17 18  4  0
 20 27  1  0
 24 27  4  0
 26 28  4  0
M  END
$$$$

 Created by Python create_sdf_string function

 29 33  0  0  0  0  0  0  0  0999 V2000
    8.8270   -7.0288   18.4251 C   0  0  0  0  0  0  0  0  0  0  0  0
    9.1576   -4.6236   15.8860 O   0  0  0  0  0  0  0  0  0  0  0  0
    9.1509   -5.9108   17.7177 C   0  0  0  0  0  0  0  0  0  0  0  0
    3.6373   -9.5349   16.0582 N   0  0  0  0  0  0  0  0  0  0  0  0
    9.9275   -4.8001   18.0438 N   0  0  0  0  0  0  0  0  0  0  0  0
    8.5908   -5.7425   16.4412 C   0  0  0  0  0  0  0  0  0  0  0  0
   10.5993   -4.8981   21.6068 C   0  0  0  0  0  0  0  0  0  0  0  0
   10.4258   -3.0106   23.0998 C   0  0  0  0  0  0  0  0  0  0  0  0
   10.2148   -3.4364   25.4200 C   0  0  0  0  0  0  0  0  0  0  0  0
    9.7853   -1.1840   24.4927 C   0  0  0  0  0  0  0  0  0  0  0  0
    5.0276   -8.5227   17.5352 C   0  0  0  0  0  0  0  0  0  0  0  0
    9.8187   -2.0895   25.5800 C   0  0  0  0  0  0  0  0  0  0  0  0
    5.6473   -8.7216   15.3158 C   0  0  0  0  0  0  0  0  0  0  0  0
   10.7581   -3.1233   19.4720 N   0  0  0  0  0  0  0  0  0  0  0  0
    9.9571   -4.0573   16.8866 C   0  0  0  0  0  0  0  0  0  0  0  0
    7.6213   -6.5618   16.0087 C   0  0  0  0  0  0  0  0  0  0  0  0
   10.8583   -2.6527   20.7222 C   0  0  0  0  0  0  0  0  0  0  0  0
   10.6412   -3.5089   21.7936 C   0  0  0  0  0  0  0  0  0  0  0  0
   10.4972   -3.8968   24.1589 C   0  0  0  0  0  0  0  0  0  0  0  0
    5.9260   -8.2736   16.5517 C   0  0  0  0  0  0  0  0  0  0  0  0
    3.8816   -9.1166   17.2493 C   0  0  0  0  0  0  0  0  0  0  0  0
   10.1297   -1.6575   23.2324 C   0  0  0  0  0  0  0  0  0  0  0  0
    9.4684   -1.6929   26.7263 F   0  0  0  0  0  0  0  0  0  0  0  0
    7.7963   -7.7906   17.9837 C   0  0  0  0  0  0  0  0  0  0  0  0
   10.5884   -3.0725   16.7902 O   0  0  0  0  0  0  0  0  0  0  0  0
   10.4323   -5.3494   20.3516 C   0  0  0  0  0  0  0  0  0  0  0  0
    7.1156   -7.5454   16.8218 C   0  0  0  0  0  0  0  0  0  0  0  0
   10.3885   -4.4388   19.2773 C   0  0  0  0  0  0  0  0  0  0  0  0
    4.5160   -9.3822   15.0841 C   0  0  0  0  0  0  0  0  0  0  0  0
  1  3  4  0
  1 24  4  0
  2  6  4  0
  2 15  4  0
  3  5  4  0
  3  6  4  0
  4 21  4  0
  4 29  4  0
  5 15  4  0
  5 28  1  0
  6 16  4  0
  7 18  4  0
  7 26  4  0
  8 18  1  0
  8 19  4  0
  8 22  4  0
  9 12  4  0
  9 19  4  0
 10 12  4  0
 10 22  4  0
 11 20  4  0
 11 21  4  0
 12 23  1  0
 13 20  4  0
 13 29  4  0
 14 17  4  0
 14 28  4  0
 15 25  2  0
 16 27  4  0
 17 18  4  0
 20 27  1  0
 24 27  4  0
 26 28  4  0
M  END
$$$$

 Created by Python create_sdf_string function

 29 33  0  0  0  0  0  0  0  0999 V2000
    8.8270   -7.0288   18.4251 C   0  0  0  0  0  0  0  0  0  0  0  0
    9.1576   -4.6236   15.8860 O   0  0  0  0  0  0  0  0  0  0  0  0
    9.1509   -5.9108   17.7177 C   0  0  0  0  0  0  0  0  0  0  0  0
    3.6373   -9.5349   16.0582 N   0  0  0  0  0  0  0  0  0  0  0  0
    9.9275   -4.8001   18.0438 N   0  0  0  0  0  0  0  0  0  0  0  0
    8.5908   -5.7425   16.4412 C   0  0  0  0  0  0  0  0  0  0  0  0
   10.5993   -4.8981   21.6068 C   0  0  0  0  0  0  0  0  0  0  0  0
   10.4258   -3.0106   23.0998 C   0  0  0  0  0  0  0  0  0  0  0  0
   10.2148   -3.4364   25.4200 C   0  0  0  0  0  0  0  0  0  0  0  0
    9.7853   -1.1840   24.4927 C   0  0  0  0  0  0  0  0  0  0  0  0
    5.0276   -8.5227   17.5352 C   0  0  0  0  0  0  0  0  0  0  0  0
    9.8187   -2.0895   25.5800 C   0  0  0  0  0  0  0  0  0  0  0  0
    5.6473   -8.7216   15.3158 C   0  0  0  0  0  0  0  0  0  0  0  0
   10.7581   -3.1233   19.4720 N   0  0  0  0  0  0  0  0  0  0  0  0
    9.9571   -4.0573   16.8866 C   0  0  0  0  0  0  0  0  0  0  0  0
    7.6213   -6.5618   16.0087 C   0  0  0  0  0  0  0  0  0  0  0  0
   10.8583   -2.6527   20.7222 C   0  0  0  0  0  0  0  0  0  0  0  0
   10.6412   -3.5089   21.7936 C   0  0  0  0  0  0  0  0  0  0  0  0
   10.4972   -3.8968   24.1589 C   0  0  0  0  0  0  0  0  0  0  0  0
    5.9260   -8.2736   16.5517 C   0  0  0  0  0  0  0  0  0  0  0  0
    3.8816   -9.1166   17.2493 C   0  0  0  0  0  0  0  0  0  0  0  0
   10.1297   -1.6575   23.2324 C   0  0  0  0  0  0  0  0  0  0  0  0
    9.4684   -1.6929   26.7263 F   0  0  0  0  0  0  0  0  0  0  0  0
    7.7963   -7.7906   17.9837 C   0  0  0  0  0  0  0  0  0  0  0  0
   10.5884   -3.0725   16.7902 O   0  0  0  0  0  0  0  0  0  0  0  0
   10.4323   -5.3494   20.3516 C   0  0  0  0  0  0  0  0  0  0  0  0
    7.1156   -7.5454   16.8218 C   0  0  0  0  0  0  0  0  0  0  0  0
   10.3885   -4.4388   19.2773 C   0  0  0  0  0  0  0  0  0  0  0  0
    4.5160   -9.3822   15.0841 C   0  0  0  0  0  0  0  0  0  0  0  0
  1  3  4  0
  1 24  4  0
  2  6  4  0
  2 15  4  0
  3  5  4  0
  3  6  4  0
  4 21  4  0
  4 29  4  0
  5 15  4  0
  5 28  1  0
  6 16  4  0
  7 18  4  0
  7 26  4  0
  8 18  1  0
  8 19  4  0
  8 22  4  0
  9 12  4  0
  9 19  4  0
 10 12  4  0
 10 22  4  0
 11 20  4  0
 11 21  4  0
 12 23  1  0
 13 20  4  0
 13 29  4  0
 14 17  4  0
 14 28  4  0
 15 25  2  0
 16 27  4  0
 17 18  4  0
 20 27  1  0
 24 27  4  0
 26 28  4  0
M  END
$$$$

 Created by Python create_sdf_string function

 29 33  0  0  0  0  0  0  0  0999 V2000
    8.8270   -7.0288   18.4251 C   0  0  0  0  0  0  0  0  0  0  0  0
    9.1576   -4.6236   15.8860 O   0  0  0  0  0  0  0  0  0  0  0  0
    9.1509   -5.9108   17.7177 C   0  0  0  0  0  0  0  0  0  0  0  0
    3.6373   -9.5349   16.0582 N   0  0  0  0  0  0  0  0  0  0  0  0
    9.9275   -4.8001   18.0438 N   0  0  0  0  0  0  0  0  0  0  0  0
    8.5908   -5.7425   16.4412 C   0  0  0  0  0  0  0  0  0  0  0  0
   10.5993   -4.8981   21.6068 C   0  0  0  0  0  0  0  0  0  0  0  0
   10.4258   -3.0106   23.0998 C   0  0  0  0  0  0  0  0  0  0  0  0
   10.2148   -3.4364   25.4200 C   0  0  0  0  0  0  0  0  0  0  0  0
    9.7853   -1.1840   24.4927 C   0  0  0  0  0  0  0  0  0  0  0  0
    5.0276   -8.5227   17.5352 C   0  0  0  0  0  0  0  0  0  0  0  0
    9.8187   -2.0895   25.5800 C   0  0  0  0  0  0  0  0  0  0  0  0
    5.6473   -8.7216   15.3158 C   0  0  0  0  0  0  0  0  0  0  0  0
   10.7581   -3.1233   19.4720 N   0  0  0  0  0  0  0  0  0  0  0  0
    9.9571   -4.0573   16.8866 C   0  0  0  0  0  0  0  0  0  0  0  0
    7.6213   -6.5618   16.0087 C   0  0  0  0  0  0  0  0  0  0  0  0
   10.8583   -2.6527   20.7222 C   0  0  0  0  0  0  0  0  0  0  0  0
   10.6412   -3.5089   21.7936 C   0  0  0  0  0  0  0  0  0  0  0  0
   10.4972   -3.8968   24.1589 C   0  0  0  0  0  0  0  0  0  0  0  0
    5.9260   -8.2736   16.5517 C   0  0  0  0  0  0  0  0  0  0  0  0
    3.8816   -9.1166   17.2493 C   0  0  0  0  0  0  0  0  0  0  0  0
   10.1297   -1.6575   23.2324 C   0  0  0  0  0  0  0  0  0  0  0  0
    9.4684   -1.6929   26.7263 F   0  0  0  0  0  0  0  0  0  0  0  0
    7.7963   -7.7906   17.9837 C   0  0  0  0  0  0  0  0  0  0  0  0
   10.5884   -3.0725   16.7902 O   0  0  0  0  0  0  0  0  0  0  0  0
   10.4323   -5.3494   20.3516 C   0  0  0  0  0  0  0  0  0  0  0  0
    7.1156   -7.5454   16.8218 C   0  0  0  0  0  0  0  0  0  0  0  0
   10.3885   -4.4388   19.2773 C   0  0  0  0  0  0  0  0  0  0  0  0
    4.5160   -9.3822   15.0841 C   0  0  0  0  0  0  0  0  0  0  0  0
  1  3  4  0
  1 24  4  0
  2  6  4  0
  2 15  4  0
  3  5  4  0
  3  6  4  0
  4 21  4  0
  4 29  4  0
  5 15  4  0
  5 28  1  0
  6 16  4  0
  7 18  4  0
  7 26  4  0
  8 18  1  0
  8 19  4  0
  8 22  4  0
  9 12  4  0
  9 19  4  0
 10 12  4  0
 10 22  4  0
 11 20  4  0
 11 21  4  0
 12 23  1  0
 13 20  4  0
 13 29  4  0
 14 17  4  0
 14 28  4  0
 15 25  2  0
 16 27  4  0
 17 18  4  0
 20 27  1  0
 24 27  4  0
 26 28  4  0
M  END
$$$$

 Created by Python create_sdf_string function

 29 33  0  0  0  0  0  0  0  0999 V2000
    8.8270   -7.0288   18.4251 C   0  0  0  0  0  0  0  0  0  0  0  0
    9.1576   -4.6236   15.8860 O   0  0  0  0  0  0  0  0  0  0  0  0
    9.1509   -5.9108   17.7177 C   0  0  0  0  0  0  0  0  0  0  0  0
    3.6373   -9.5349   16.0582 N   0  0  0  0  0  0  0  0  0  0  0  0
    9.9275   -4.8001   18.0438 N   0  0  0  0  0  0  0  0  0  0  0  0
    8.5908   -5.7425   16.4412 C   0  0  0  0  0  0  0  0  0  0  0  0
   10.5993   -4.8981   21.6068 C   0  0  0  0  0  0  0  0  0  0  0  0
   10.4258   -3.0106   23.0998 C   0  0  0  0  0  0  0  0  0  0  0  0
   10.2148   -3.4364   25.4200 C   0  0  0  0  0  0  0  0  0  0  0  0
    9.7853   -1.1840   24.4927 C   0  0  0  0  0  0  0  0  0  0  0  0
    5.0276   -8.5227   17.5352 C   0  0  0  0  0  0  0  0  0  0  0  0
    9.8187   -2.0895   25.5800 C   0  0  0  0  0  0  0  0  0  0  0  0
    5.6473   -8.7216   15.3158 C   0  0  0  0  0  0  0  0  0  0  0  0
   10.7581   -3.1233   19.4720 N   0  0  0  0  0  0  0  0  0  0  0  0
    9.9571   -4.0573   16.8866 C   0  0  0  0  0  0  0  0  0  0  0  0
    7.6213   -6.5618   16.0087 C   0  0  0  0  0  0  0  0  0  0  0  0
   10.8583   -2.6527   20.7222 C   0  0  0  0  0  0  0  0  0  0  0  0
   10.6412   -3.5089   21.7936 C   0  0  0  0  0  0  0  0  0  0  0  0
   10.4972   -3.8968   24.1589 C   0  0  0  0  0  0  0  0  0  0  0  0
    5.9260   -8.2736   16.5517 C   0  0  0  0  0  0  0  0  0  0  0  0
    3.8816   -9.1166   17.2493 C   0  0  0  0  0  0  0  0  0  0  0  0
   10.1297   -1.6575   23.2324 C   0  0  0  0  0  0  0  0  0  0  0  0
    9.4684   -1.6929   26.7263 F   0  0  0  0  0  0  0  0  0  0  0  0
    7.7963   -7.7906   17.9837 C   0  0  0  0  0  0  0  0  0  0  0  0
   10.5884   -3.0725   16.7902 O   0  0  0  0  0  0  0  0  0  0  0  0
   10.4323   -5.3494   20.3516 C   0  0  0  0  0  0  0  0  0  0  0  0
    7.1156   -7.5454   16.8218 C   0  0  0  0  0  0  0  0  0  0  0  0
   10.3885   -4.4388   19.2773 C   0  0  0  0  0  0  0  0  0  0  0  0
    4.5160   -9.3822   15.0841 C   0  0  0  0  0  0  0  0  0  0  0  0
  1  3  4  0
  1 24  4  0
  2  6  4  0
  2 15  4  0
  3  5  4  0
  3  6  4  0
  4 21  4  0
  4 29  4  0
  5 15  4  0
  5 28  1  0
  6 16  4  0
  7 18  4  0
  7 26  4  0
  8 18  1  0
  8 19  4  0
  8 22  4  0
  9 12  4  0
  9 19  4  0
 10 12  4  0
 10 22  4  0
 11 20  4  0
 11 21  4  0
 12 23  1  0
 13 20  4  0
 13 29  4  0
 14 17  4  0
 14 28  4  0
 15 25  2  0
 16 27  4  0
 17 18  4  0
 20 27  1  0
 24 27  4  0
 26 28  4  0
M  END
$$$$

 Created by Python create_sdf_string function

 29 33  0  0  0  0  0  0  0  0999 V2000
    8.8270   -7.0288   18.4251 C   0  0  0  0  0  0  0  0  0  0  0  0
    9.1576   -4.6236   15.8860 O   0  0  0  0  0  0  0  0  0  0  0  0
    9.1509   -5.9108   17.7177 C   0  0  0  0  0  0  0  0  0  0  0  0
    3.6373   -9.5349   16.0582 N   0  0  0  0  0  0  0  0  0  0  0  0
    9.9275   -4.8001   18.0438 N   0  0  0  0  0  0  0  0  0  0  0  0
    8.5908   -5.7425   16.4412 C   0  0  0  0  0  0  0  0  0  0  0  0
   10.5993   -4.8981   21.6068 C   0  0  0  0  0  0  0  0  0  0  0  0
   10.4258   -3.0106   23.0998 C   0  0  0  0  0  0  0  0  0  0  0  0
   10.2148   -3.4364   25.4200 C   0  0  0  0  0  0  0  0  0  0  0  0
    9.7853   -1.1840   24.4927 C   0  0  0  0  0  0  0  0  0  0  0  0
    5.0276   -8.5227   17.5352 C   0  0  0  0  0  0  0  0  0  0  0  0
    9.8187   -2.0895   25.5800 C   0  0  0  0  0  0  0  0  0  0  0  0
    5.6473   -8.7216   15.3158 C   0  0  0  0  0  0  0  0  0  0  0  0
   10.7581   -3.1233   19.4720 N   0  0  0  0  0  0  0  0  0  0  0  0
    9.9571   -4.0573   16.8866 C   0  0  0  0  0  0  0  0  0  0  0  0
    7.6213   -6.5618   16.0087 C   0  0  0  0  0  0  0  0  0  0  0  0
   10.8583   -2.6527   20.7222 C   0  0  0  0  0  0  0  0  0  0  0  0
   10.6412   -3.5089   21.7936 C   0  0  0  0  0  0  0  0  0  0  0  0
   10.4972   -3.8968   24.1589 C   0  0  0  0  0  0  0  0  0  0  0  0
    5.9260   -8.2736   16.5517 C   0  0  0  0  0  0  0  0  0  0  0  0
    3.8816   -9.1166   17.2493 C   0  0  0  0  0  0  0  0  0  0  0  0
   10.1297   -1.6575   23.2324 C   0  0  0  0  0  0  0  0  0  0  0  0
    9.4684   -1.6929   26.7263 F   0  0  0  0  0  0  0  0  0  0  0  0
    7.7963   -7.7906   17.9837 C   0  0  0  0  0  0  0  0  0  0  0  0
   10.5884   -3.0725   16.7902 O   0  0  0  0  0  0  0  0  0  0  0  0
   10.4323   -5.3494   20.3516 C   0  0  0  0  0  0  0  0  0  0  0  0
    7.1156   -7.5454   16.8218 C   0  0  0  0  0  0  0  0  0  0  0  0
   10.3885   -4.4388   19.2773 C   0  0  0  0  0  0  0  0  0  0  0  0
    4.5160   -9.3822   15.0841 C   0  0  0  0  0  0  0  0  0  0  0  0
  1  3  4  0
  1 24  4  0
  2  6  4  0
  2 15  4  0
  3  5  4  0
  3  6  4  0
  4 21  4  0
  4 29  4  0
  5 15  4  0
  5 28  1  0
  6 16  4  0
  7 18  4  0
  7 26  4  0
  8 18  1  0
  8 19  4  0
  8 22  4  0
  9 12  4  0
  9 19  4  0
 10 12  4  0
 10 22  4  0
 11 20  4  0
 11 21  4  0
 12 23  1  0
 13 20  4  0
 13 29  4  0
 14 17  4  0
 14 28  4  0
 15 25  2  0
 16 27  4  0
 17 18  4  0
 20 27  1  0
 24 27  4  0
 26 28  4  0
M  END
$$$$

 Created by Python create_sdf_string function

 29 33  0  0  0  0  0  0  0  0999 V2000
    8.8270   -7.0288   18.4251 C   0  0  0  0  0  0  0  0  0  0  0  0
    9.1576   -4.6236   15.8860 O   0  0  0  0  0  0  0  0  0  0  0  0
    9.1509   -5.9108   17.7177 C   0  0  0  0  0  0  0  0  0  0  0  0
    3.6373   -9.5349   16.0582 N   0  0  0  0  0  0  0  0  0  0  0  0
    9.9275   -4.8001   18.0438 N   0  0  0  0  0  0  0  0  0  0  0  0
    8.5908   -5.7425   16.4412 C   0  0  0  0  0  0  0  0  0  0  0  0
   10.5993   -4.8981   21.6068 C   0  0  0  0  0  0  0  0  0  0  0  0
   10.4258   -3.0106   23.0998 C   0  0  0  0  0  0  0  0  0  0  0  0
   10.2148   -3.4364   25.4200 C   0  0  0  0  0  0  0  0  0  0  0  0
    9.7853   -1.1840   24.4927 C   0  0  0  0  0  0  0  0  0  0  0  0
    5.0276   -8.5227   17.5352 C   0  0  0  0  0  0  0  0  0  0  0  0
    9.8187   -2.0895   25.5800 C   0  0  0  0  0  0  0  0  0  0  0  0
    5.6473   -8.7216   15.3158 C   0  0  0  0  0  0  0  0  0  0  0  0
   10.7581   -3.1233   19.4720 N   0  0  0  0  0  0  0  0  0  0  0  0
    9.9571   -4.0573   16.8866 C   0  0  0  0  0  0  0  0  0  0  0  0
    7.6213   -6.5618   16.0087 C   0  0  0  0  0  0  0  0  0  0  0  0
   10.8583   -2.6527   20.7222 C   0  0  0  0  0  0  0  0  0  0  0  0
   10.6412   -3.5089   21.7936 C   0  0  0  0  0  0  0  0  0  0  0  0
   10.4972   -3.8968   24.1589 C   0  0  0  0  0  0  0  0  0  0  0  0
    5.9260   -8.2736   16.5517 C   0  0  0  0  0  0  0  0  0  0  0  0
    3.8816   -9.1166   17.2493 C   0  0  0  0  0  0  0  0  0  0  0  0
   10.1297   -1.6575   23.2324 C   0  0  0  0  0  0  0  0  0  0  0  0
    9.4684   -1.6929   26.7263 F   0  0  0  0  0  0  0  0  0  0  0  0
    7.7963   -7.7906   17.9837 C   0  0  0  0  0  0  0  0  0  0  0  0
   10.5884   -3.0725   16.7902 O   0  0  0  0  0  0  0  0  0  0  0  0
   10.4323   -5.3494   20.3516 C   0  0  0  0  0  0  0  0  0  0  0  0
    7.1156   -7.5454   16.8218 C   0  0  0  0  0  0  0  0  0  0  0  0
   10.3885   -4.4388   19.2773 C   0  0  0  0  0  0  0  0  0  0  0  0
    4.5160   -9.3822   15.0841 C   0  0  0  0  0  0  0  0  0  0  0  0
  1  3  4  0
  1 24  4  0
  2  6  4  0
  2 15  4  0
  3  5  4  0
  3  6  4  0
  4 21  4  0
  4 29  4  0
  5 15  4  0
  5 28  1  0
  6 16  4  0
  7 18  4  0
  7 26  4  0
  8 18  1  0
  8 19  4  0
  8 22  4  0
  9 12  4  0
  9 19  4  0
 10 12  4  0
 10 22  4  0
 11 20  4  0
 11 21  4  0
 12 23  1  0
 13 20  4  0
 13 29  4  0
 14 17  4  0
 14 28  4  0
 15 25  2  0
 16 27  4  0
 17 18  4  0
 20 27  1  0
 24 27  4  0
 26 28  4  0
M  END
$$$$

 Created by Python create_sdf_string function

 29 33  0  0  0  0  0  0  0  0999 V2000
    8.8270   -7.0288   18.4251 C   0  0  0  0  0  0  0  0  0  0  0  0
    9.1576   -4.6236   15.8860 O   0  0  0  0  0  0  0  0  0  0  0  0
    9.1509   -5.9108   17.7177 C   0  0  0  0  0  0  0  0  0  0  0  0
    3.6373   -9.5349   16.0582 N   0  0  0  0  0  0  0  0  0  0  0  0
    9.9275   -4.8001   18.0438 N   0  0  0  0  0  0  0  0  0  0  0  0
    8.5908   -5.7425   16.4412 C   0  0  0  0  0  0  0  0  0  0  0  0
   10.5993   -4.8981   21.6068 C   0  0  0  0  0  0  0  0  0  0  0  0
   10.4258   -3.0106   23.0998 C   0  0  0  0  0  0  0  0  0  0  0  0
   10.2148   -3.4364   25.4200 C   0  0  0  0  0  0  0  0  0  0  0  0
    9.7853   -1.1840   24.4927 C   0  0  0  0  0  0  0  0  0  0  0  0
    5.0276   -8.5227   17.5352 C   0  0  0  0  0  0  0  0  0  0  0  0
    9.8187   -2.0895   25.5800 C   0  0  0  0  0  0  0  0  0  0  0  0
    5.6473   -8.7216   15.3158 C   0  0  0  0  0  0  0  0  0  0  0  0
   10.7581   -3.1233   19.4720 N   0  0  0  0  0  0  0  0  0  0  0  0
    9.9571   -4.0573   16.8866 C   0  0  0  0  0  0  0  0  0  0  0  0
    7.6213   -6.5618   16.0087 C   0  0  0  0  0  0  0  0  0  0  0  0
   10.8583   -2.6527   20.7222 C   0  0  0  0  0  0  0  0  0  0  0  0
   10.6412   -3.5089   21.7936 C   0  0  0  0  0  0  0  0  0  0  0  0
   10.4972   -3.8968   24.1589 C   0  0  0  0  0  0  0  0  0  0  0  0
    5.9260   -8.2736   16.5517 C   0  0  0  0  0  0  0  0  0  0  0  0
    3.8816   -9.1166   17.2493 C   0  0  0  0  0  0  0  0  0  0  0  0
   10.1297   -1.6575   23.2324 C   0  0  0  0  0  0  0  0  0  0  0  0
    9.4684   -1.6929   26.7263 F   0  0  0  0  0  0  0  0  0  0  0  0
    7.7963   -7.7906   17.9837 C   0  0  0  0  0  0  0  0  0  0  0  0
   10.5884   -3.0725   16.7902 O   0  0  0  0  0  0  0  0  0  0  0  0
   10.4323   -5.3494   20.3516 C   0  0  0  0  0  0  0  0  0  0  0  0
    7.1156   -7.5454   16.8218 C   0  0  0  0  0  0  0  0  0  0  0  0
   10.3885   -4.4388   19.2773 C   0  0  0  0  0  0  0  0  0  0  0  0
    4.5160   -9.3822   15.0841 C   0  0  0  0  0  0  0  0  0  0  0  0
  1  3  4  0
  1 24  4  0
  2  6  4  0
  2 15  4  0
  3  5  4  0
  3  6  4  0
  4 21  4  0
  4 29  4  0
  5 15  4  0
  5 28  1  0
  6 16  4  0
  7 18  4  0
  7 26  4  0
  8 18  1  0
  8 19  4  0
  8 22  4  0
  9 12  4  0
  9 19  4  0
 10 12  4  0
 10 22  4  0
 11 20  4  0
 11 21  4  0
 12 23  1  0
 13 20  4  0
 13 29  4  0
 14 17  4  0
 14 28  4  0
 15 25  2  0
 16 27  4  0
 17 18  4  0
 20 27  1  0
 24 27  4  0
 26 28  4  0
M  END
$$$$

 Created by Python create_sdf_string function

 29 33  0  0  0  0  0  0  0  0999 V2000
    8.8270   -7.0288   18.4251 C   0  0  0  0  0  0  0  0  0  0  0  0
    9.1576   -4.6236   15.8860 O   0  0  0  0  0  0  0  0  0  0  0  0
    9.1509   -5.9108   17.7177 C   0  0  0  0  0  0  0  0  0  0  0  0
    3.6373   -9.5349   16.0582 N   0  0  0  0  0  0  0  0  0  0  0  0
    9.9275   -4.8001   18.0438 N   0  0  0  0  0  0  0  0  0  0  0  0
    8.5908   -5.7425   16.4412 C   0  0  0  0  0  0  0  0  0  0  0  0
   10.5993   -4.8981   21.6068 C   0  0  0  0  0  0  0  0  0  0  0  0
   10.4258   -3.0106   23.0998 C   0  0  0  0  0  0  0  0  0  0  0  0
   10.2148   -3.4364   25.4200 C   0  0  0  0  0  0  0  0  0  0  0  0
    9.7853   -1.1840   24.4927 C   0  0  0  0  0  0  0  0  0  0  0  0
    5.0276   -8.5227   17.5352 C   0  0  0  0  0  0  0  0  0  0  0  0
    9.8187   -2.0895   25.5800 C   0  0  0  0  0  0  0  0  0  0  0  0
    5.6473   -8.7216   15.3158 C   0  0  0  0  0  0  0  0  0  0  0  0
   10.7581   -3.1233   19.4720 N   0  0  0  0  0  0  0  0  0  0  0  0
    9.9571   -4.0573   16.8866 C   0  0  0  0  0  0  0  0  0  0  0  0
    7.6213   -6.5618   16.0087 C   0  0  0  0  0  0  0  0  0  0  0  0
   10.8583   -2.6527   20.7222 C   0  0  0  0  0  0  0  0  0  0  0  0
   10.6412   -3.5089   21.7936 C   0  0  0  0  0  0  0  0  0  0  0  0
   10.4972   -3.8968   24.1589 C   0  0  0  0  0  0  0  0  0  0  0  0
    5.9260   -8.2736   16.5517 C   0  0  0  0  0  0  0  0  0  0  0  0
    3.8816   -9.1166   17.2493 C   0  0  0  0  0  0  0  0  0  0  0  0
   10.1297   -1.6575   23.2324 C   0  0  0  0  0  0  0  0  0  0  0  0
    9.4684   -1.6929   26.7263 F   0  0  0  0  0  0  0  0  0  0  0  0
    7.7963   -7.7906   17.9837 C   0  0  0  0  0  0  0  0  0  0  0  0
   10.5884   -3.0725   16.7902 O   0  0  0  0  0  0  0  0  0  0  0  0
   10.4323   -5.3494   20.3516 C   0  0  0  0  0  0  0  0  0  0  0  0
    7.1156   -7.5454   16.8218 C   0  0  0  0  0  0  0  0  0  0  0  0
   10.3885   -4.4388   19.2773 C   0  0  0  0  0  0  0  0  0  0  0  0
    4.5160   -9.3822   15.0841 C   0  0  0  0  0  0  0  0  0  0  0  0
  1  3  4  0
  1 24  4  0
  2  6  4  0
  2 15  4  0
  3  5  4  0
  3  6  4  0
  4 21  4  0
  4 29  4  0
  5 15  4  0
  5 28  1  0
  6 16  4  0
  7 18  4  0
  7 26  4  0
  8 18  1  0
  8 19  4  0
  8 22  4  0
  9 12  4  0
  9 19  4  0
 10 12  4  0
 10 22  4  0
 11 20  4  0
 11 21  4  0
 12 23  1  0
 13 20  4  0
 13 29  4  0
 14 17  4  0
 14 28  4  0
 15 25  2  0
 16 27  4  0
 17 18  4  0
 20 27  1  0
 24 27  4  0
 26 28  4  0
M  END
$$$$

 Created by Python create_sdf_string function

 29 33  0  0  0  0  0  0  0  0999 V2000
    8.8270   -7.0288   18.4251 C   0  0  0  0  0  0  0  0  0  0  0  0
    9.1576   -4.6236   15.8860 O   0  0  0  0  0  0  0  0  0  0  0  0
    9.1509   -5.9108   17.7177 C   0  0  0  0  0  0  0  0  0  0  0  0
    3.6373   -9.5349   16.0582 N   0  0  0  0  0  0  0  0  0  0  0  0
    9.9275   -4.8001   18.0438 N   0  0  0  0  0  0  0  0  0  0  0  0
    8.5908   -5.7425   16.4412 C   0  0  0  0  0  0  0  0  0  0  0  0
   10.5993   -4.8981   21.6068 C   0  0  0  0  0  0  0  0  0  0  0  0
   10.4258   -3.0106   23.0998 C   0  0  0  0  0  0  0  0  0  0  0  0
   10.2148   -3.4364   25.4200 C   0  0  0  0  0  0  0  0  0  0  0  0
    9.7853   -1.1840   24.4927 C   0  0  0  0  0  0  0  0  0  0  0  0
    5.0276   -8.5227   17.5352 C   0  0  0  0  0  0  0  0  0  0  0  0
    9.8187   -2.0895   25.5800 C   0  0  0  0  0  0  0  0  0  0  0  0
    5.6473   -8.7216   15.3158 C   0  0  0  0  0  0  0  0  0  0  0  0
   10.7581   -3.1233   19.4720 N   0  0  0  0  0  0  0  0  0  0  0  0
    9.9571   -4.0573   16.8866 C   0  0  0  0  0  0  0  0  0  0  0  0
    7.6213   -6.5618   16.0087 C   0  0  0  0  0  0  0  0  0  0  0  0
   10.8583   -2.6527   20.7222 C   0  0  0  0  0  0  0  0  0  0  0  0
   10.6412   -3.5089   21.7936 C   0  0  0  0  0  0  0  0  0  0  0  0
   10.4972   -3.8968   24.1589 C   0  0  0  0  0  0  0  0  0  0  0  0
    5.9260   -8.2736   16.5517 C   0  0  0  0  0  0  0  0  0  0  0  0
    3.8816   -9.1166   17.2493 C   0  0  0  0  0  0  0  0  0  0  0  0
   10.1297   -1.6575   23.2324 C   0  0  0  0  0  0  0  0  0  0  0  0
    9.4684   -1.6929   26.7263 F   0  0  0  0  0  0  0  0  0  0  0  0
    7.7963   -7.7906   17.9837 C   0  0  0  0  0  0  0  0  0  0  0  0
   10.5884   -3.0725   16.7902 O   0  0  0  0  0  0  0  0  0  0  0  0
   10.4323   -5.3494   20.3516 C   0  0  0  0  0  0  0  0  0  0  0  0
    7.1156   -7.5454   16.8218 C   0  0  0  0  0  0  0  0  0  0  0  0
   10.3885   -4.4388   19.2773 C   0  0  0  0  0  0  0  0  0  0  0  0
    4.5160   -9.3822   15.0841 C   0  0  0  0  0  0  0  0  0  0  0  0
  1  3  4  0
  1 24  4  0
  2  6  4  0
  2 15  4  0
  3  5  4  0
  3  6  4  0
  4 21  4  0
  4 29  4  0
  5 15  4  0
  5 28  1  0
  6 16  4  0
  7 18  4  0
  7 26  4  0
  8 18  1  0
  8 19  4  0
  8 22  4  0
  9 12  4  0
  9 19  4  0
 10 12  4  0
 10 22  4  0
 11 20  4  0
 11 21  4  0
 12 23  1  0
 13 20  4  0
 13 29  4  0
 14 17  4  0
 14 28  4  0
 15 25  2  0
 16 27  4  0
 17 18  4  0
 20 27  1  0
 24 27  4  0
 26 28  4  0
M  END
$$$$

 Created by Python create_sdf_string function

 29 33  0  0  0  0  0  0  0  0999 V2000
    8.8270   -7.0288   18.4251 C   0  0  0  0  0  0  0  0  0  0  0  0
    9.1576   -4.6236   15.8860 O   0  0  0  0  0  0  0  0  0  0  0  0
    9.1509   -5.9108   17.7177 C   0  0  0  0  0  0  0  0  0  0  0  0
    3.6373   -9.5349   16.0582 N   0  0  0  0  0  0  0  0  0  0  0  0
    9.9275   -4.8001   18.0438 N   0  0  0  0  0  0  0  0  0  0  0  0
    8.5908   -5.7425   16.4412 C   0  0  0  0  0  0  0  0  0  0  0  0
   10.5993   -4.8981   21.6068 C   0  0  0  0  0  0  0  0  0  0  0  0
   10.4258   -3.0106   23.0998 C   0  0  0  0  0  0  0  0  0  0  0  0
   10.2148   -3.4364   25.4200 C   0  0  0  0  0  0  0  0  0  0  0  0
    9.7853   -1.1840   24.4927 C   0  0  0  0  0  0  0  0  0  0  0  0
    5.0276   -8.5227   17.5352 C   0  0  0  0  0  0  0  0  0  0  0  0
    9.8187   -2.0895   25.5800 C   0  0  0  0  0  0  0  0  0  0  0  0
    5.6473   -8.7216   15.3158 C   0  0  0  0  0  0  0  0  0  0  0  0
   10.7581   -3.1233   19.4720 N   0  0  0  0  0  0  0  0  0  0  0  0
    9.9571   -4.0573   16.8866 C   0  0  0  0  0  0  0  0  0  0  0  0
    7.6213   -6.5618   16.0087 C   0  0  0  0  0  0  0  0  0  0  0  0
   10.8583   -2.6527   20.7222 C   0  0  0  0  0  0  0  0  0  0  0  0
   10.6412   -3.5089   21.7936 C   0  0  0  0  0  0  0  0  0  0  0  0
   10.4972   -3.8968   24.1589 C   0  0  0  0  0  0  0  0  0  0  0  0
    5.9260   -8.2736   16.5517 C   0  0  0  0  0  0  0  0  0  0  0  0
    3.8816   -9.1166   17.2493 C   0  0  0  0  0  0  0  0  0  0  0  0
   10.1297   -1.6575   23.2324 C   0  0  0  0  0  0  0  0  0  0  0  0
    9.4684   -1.6929   26.7263 F   0  0  0  0  0  0  0  0  0  0  0  0
    7.7963   -7.7906   17.9837 C   0  0  0  0  0  0  0  0  0  0  0  0
   10.5884   -3.0725   16.7902 O   0  0  0  0  0  0  0  0  0  0  0  0
   10.4323   -5.3494   20.3516 C   0  0  0  0  0  0  0  0  0  0  0  0
    7.1156   -7.5454   16.8218 C   0  0  0  0  0  0  0  0  0  0  0  0
   10.3885   -4.4388   19.2773 C   0  0  0  0  0  0  0  0  0  0  0  0
    4.5160   -9.3822   15.0841 C   0  0  0  0  0  0  0  0  0  0  0  0
  1  3  4  0
  1 24  4  0
  2  6  4  0
  2 15  4  0
  3  5  4  0
  3  6  4  0
  4 21  4  0
  4 29  4  0
  5 15  4  0
  5 28  1  0
  6 16  4  0
  7 18  4  0
  7 26  4  0
  8 18  1  0
  8 19  4  0
  8 22  4  0
  9 12  4  0
  9 19  4  0
 10 12  4  0
 10 22  4  0
 11 20  4  0
 11 21  4  0
 12 23  1  0
 13 20  4  0
 13 29  4  0
 14 17  4  0
 14 28  4  0
 15 25  2  0
 16 27  4  0
 17 18  4  0
 20 27  1  0
 24 27  4  0
 26 28  4  0
M  END
$$$$

 Created by Python create_sdf_string function

 29 33  0  0  0  0  0  0  0  0999 V2000
    8.8270   -7.0288   18.4251 C   0  0  0  0  0  0  0  0  0  0  0  0
    9.1576   -4.6236   15.8860 O   0  0  0  0  0  0  0  0  0  0  0  0
    9.1509   -5.9108   17.7177 C   0  0  0  0  0  0  0  0  0  0  0  0
    3.6373   -9.5349   16.0582 N   0  0  0  0  0  0  0  0  0  0  0  0
    9.9275   -4.8001   18.0438 N   0  0  0  0  0  0  0  0  0  0  0  0
    8.5908   -5.7425   16.4412 C   0  0  0  0  0  0  0  0  0  0  0  0
   10.5993   -4.8981   21.6068 C   0  0  0  0  0  0  0  0  0  0  0  0
   10.4258   -3.0106   23.0998 C   0  0  0  0  0  0  0  0  0  0  0  0
   10.2148   -3.4364   25.4200 C   0  0  0  0  0  0  0  0  0  0  0  0
    9.7853   -1.1840   24.4927 C   0  0  0  0  0  0  0  0  0  0  0  0
    5.0276   -8.5227   17.5352 C   0  0  0  0  0  0  0  0  0  0  0  0
    9.8187   -2.0895   25.5800 C   0  0  0  0  0  0  0  0  0  0  0  0
    5.6473   -8.7216   15.3158 C   0  0  0  0  0  0  0  0  0  0  0  0
   10.7581   -3.1233   19.4720 N   0  0  0  0  0  0  0  0  0  0  0  0
    9.9571   -4.0573   16.8866 C   0  0  0  0  0  0  0  0  0  0  0  0
    7.6213   -6.5618   16.0087 C   0  0  0  0  0  0  0  0  0  0  0  0
   10.8583   -2.6527   20.7222 C   0  0  0  0  0  0  0  0  0  0  0  0
   10.6412   -3.5089   21.7936 C   0  0  0  0  0  0  0  0  0  0  0  0
   10.4972   -3.8968   24.1589 C   0  0  0  0  0  0  0  0  0  0  0  0
    5.9260   -8.2736   16.5517 C   0  0  0  0  0  0  0  0  0  0  0  0
    3.8816   -9.1166   17.2493 C   0  0  0  0  0  0  0  0  0  0  0  0
   10.1297   -1.6575   23.2324 C   0  0  0  0  0  0  0  0  0  0  0  0
    9.4684   -1.6929   26.7263 F   0  0  0  0  0  0  0  0  0  0  0  0
    7.7963   -7.7906   17.9837 C   0  0  0  0  0  0  0  0  0  0  0  0
   10.5884   -3.0725   16.7902 O   0  0  0  0  0  0  0  0  0  0  0  0
   10.4323   -5.3494   20.3516 C   0  0  0  0  0  0  0  0  0  0  0  0
    7.1156   -7.5454   16.8218 C   0  0  0  0  0  0  0  0  0  0  0  0
   10.3885   -4.4388   19.2773 C   0  0  0  0  0  0  0  0  0  0  0  0
    4.5160   -9.3822   15.0841 C   0  0  0  0  0  0  0  0  0  0  0  0
  1  3  4  0
  1 24  4  0
  2  6  4  0
  2 15  4  0
  3  5  4  0
  3  6  4  0
  4 21  4  0
  4 29  4  0
  5 15  4  0
  5 28  1  0
  6 16  4  0
  7 18  4  0
  7 26  4  0
  8 18  1  0
  8 19  4  0
  8 22  4  0
  9 12  4  0
  9 19  4  0
 10 12  4  0
 10 22  4  0
 11 20  4  0
 11 21  4  0
 12 23  1  0
 13 20  4  0
 13 29  4  0
 14 17  4  0
 14 28  4  0
 15 25  2  0
 16 27  4  0
 17 18  4  0
 20 27  1  0
 24 27  4  0
 26 28  4  0
M  END
$$$$

 Created by Python create_sdf_string function

 29 33  0  0  0  0  0  0  0  0999 V2000
    8.8270   -7.0288   18.4251 C   0  0  0  0  0  0  0  0  0  0  0  0
    9.1576   -4.6236   15.8860 O   0  0  0  0  0  0  0  0  0  0  0  0
    9.1509   -5.9108   17.7177 C   0  0  0  0  0  0  0  0  0  0  0  0
    3.6373   -9.5349   16.0582 N   0  0  0  0  0  0  0  0  0  0  0  0
    9.9275   -4.8001   18.0438 N   0  0  0  0  0  0  0  0  0  0  0  0
    8.5908   -5.7425   16.4412 C   0  0  0  0  0  0  0  0  0  0  0  0
   10.5993   -4.8981   21.6068 C   0  0  0  0  0  0  0  0  0  0  0  0
   10.4258   -3.0106   23.0998 C   0  0  0  0  0  0  0  0  0  0  0  0
   10.2148   -3.4364   25.4200 C   0  0  0  0  0  0  0  0  0  0  0  0
    9.7853   -1.1840   24.4927 C   0  0  0  0  0  0  0  0  0  0  0  0
    5.0276   -8.5227   17.5352 C   0  0  0  0  0  0  0  0  0  0  0  0
    9.8187   -2.0895   25.5800 C   0  0  0  0  0  0  0  0  0  0  0  0
    5.6473   -8.7216   15.3158 C   0  0  0  0  0  0  0  0  0  0  0  0
   10.7581   -3.1233   19.4720 N   0  0  0  0  0  0  0  0  0  0  0  0
    9.9571   -4.0573   16.8866 C   0  0  0  0  0  0  0  0  0  0  0  0
    7.6213   -6.5618   16.0087 C   0  0  0  0  0  0  0  0  0  0  0  0
   10.8583   -2.6527   20.7222 C   0  0  0  0  0  0  0  0  0  0  0  0
   10.6412   -3.5089   21.7936 C   0  0  0  0  0  0  0  0  0  0  0  0
   10.4972   -3.8968   24.1589 C   0  0  0  0  0  0  0  0  0  0  0  0
    5.9260   -8.2736   16.5517 C   0  0  0  0  0  0  0  0  0  0  0  0
    3.8816   -9.1166   17.2493 C   0  0  0  0  0  0  0  0  0  0  0  0
   10.1297   -1.6575   23.2324 C   0  0  0  0  0  0  0  0  0  0  0  0
    9.4684   -1.6929   26.7263 F   0  0  0  0  0  0  0  0  0  0  0  0
    7.7963   -7.7906   17.9837 C   0  0  0  0  0  0  0  0  0  0  0  0
   10.5884   -3.0725   16.7902 O   0  0  0  0  0  0  0  0  0  0  0  0
   10.4323   -5.3494   20.3516 C   0  0  0  0  0  0  0  0  0  0  0  0
    7.1156   -7.5454   16.8218 C   0  0  0  0  0  0  0  0  0  0  0  0
   10.3885   -4.4388   19.2773 C   0  0  0  0  0  0  0  0  0  0  0  0
    4.5160   -9.3822   15.0841 C   0  0  0  0  0  0  0  0  0  0  0  0
  1  3  4  0
  1 24  4  0
  2  6  4  0
  2 15  4  0
  3  5  4  0
  3  6  4  0
  4 21  4  0
  4 29  4  0
  5 15  4  0
  5 28  1  0
  6 16  4  0
  7 18  4  0
  7 26  4  0
  8 18  1  0
  8 19  4  0
  8 22  4  0
  9 12  4  0
  9 19  4  0
 10 12  4  0
 10 22  4  0
 11 20  4  0
 11 21  4  0
 12 23  1  0
 13 20  4  0
 13 29  4  0
 14 17  4  0
 14 28  4  0
 15 25  2  0
 16 27  4  0
 17 18  4  0
 20 27  1  0
 24 27  4  0
 26 28  4  0
M  END
$$$$

 Created by Python create_sdf_string function

 29 33  0  0  0  0  0  0  0  0999 V2000
    8.8270   -7.0288   18.4251 C   0  0  0  0  0  0  0  0  0  0  0  0
    9.1576   -4.6236   15.8860 O   0  0  0  0  0  0  0  0  0  0  0  0
    9.1509   -5.9108   17.7177 C   0  0  0  0  0  0  0  0  0  0  0  0
    3.6373   -9.5349   16.0582 N   0  0  0  0  0  0  0  0  0  0  0  0
    9.9275   -4.8001   18.0438 N   0  0  0  0  0  0  0  0  0  0  0  0
    8.5908   -5.7425   16.4412 C   0  0  0  0  0  0  0  0  0  0  0  0
   10.5993   -4.8981   21.6068 C   0  0  0  0  0  0  0  0  0  0  0  0
   10.4258   -3.0106   23.0998 C   0  0  0  0  0  0  0  0  0  0  0  0
   10.2148   -3.4364   25.4200 C   0  0  0  0  0  0  0  0  0  0  0  0
    9.7853   -1.1840   24.4927 C   0  0  0  0  0  0  0  0  0  0  0  0
    5.0276   -8.5227   17.5352 C   0  0  0  0  0  0  0  0  0  0  0  0
    9.8187   -2.0895   25.5800 C   0  0  0  0  0  0  0  0  0  0  0  0
    5.6473   -8.7216   15.3158 C   0  0  0  0  0  0  0  0  0  0  0  0
   10.7581   -3.1233   19.4720 N   0  0  0  0  0  0  0  0  0  0  0  0
    9.9571   -4.0573   16.8866 C   0  0  0  0  0  0  0  0  0  0  0  0
    7.6213   -6.5618   16.0087 C   0  0  0  0  0  0  0  0  0  0  0  0
   10.8583   -2.6527   20.7222 C   0  0  0  0  0  0  0  0  0  0  0  0
   10.6412   -3.5089   21.7936 C   0  0  0  0  0  0  0  0  0  0  0  0
   10.4972   -3.8968   24.1589 C   0  0  0  0  0  0  0  0  0  0  0  0
    5.9260   -8.2736   16.5517 C   0  0  0  0  0  0  0  0  0  0  0  0
    3.8816   -9.1166   17.2493 C   0  0  0  0  0  0  0  0  0  0  0  0
   10.1297   -1.6575   23.2324 C   0  0  0  0  0  0  0  0  0  0  0  0
    9.4684   -1.6929   26.7263 F   0  0  0  0  0  0  0  0  0  0  0  0
    7.7963   -7.7906   17.9837 C   0  0  0  0  0  0  0  0  0  0  0  0
   10.5884   -3.0725   16.7902 O   0  0  0  0  0  0  0  0  0  0  0  0
   10.4323   -5.3494   20.3516 C   0  0  0  0  0  0  0  0  0  0  0  0
    7.1156   -7.5454   16.8218 C   0  0  0  0  0  0  0  0  0  0  0  0
   10.3885   -4.4388   19.2773 C   0  0  0  0  0  0  0  0  0  0  0  0
    4.5160   -9.3822   15.0841 C   0  0  0  0  0  0  0  0  0  0  0  0
  1  3  4  0
  1 24  4  0
  2  6  4  0
  2 15  4  0
  3  5  4  0
  3  6  4  0
  4 21  4  0
  4 29  4  0
  5 15  4  0
  5 28  1  0
  6 16  4  0
  7 18  4  0
  7 26  4  0
  8 18  1  0
  8 19  4  0
  8 22  4  0
  9 12  4  0
  9 19  4  0
 10 12  4  0
 10 22  4  0
 11 20  4  0
 11 21  4  0
 12 23  1  0
 13 20  4  0
 13 29  4  0
 14 17  4  0
 14 28  4  0
 15 25  2  0
 16 27  4  0
 17 18  4  0
 20 27  1  0
 24 27  4  0
 26 28  4  0
M  END
$$$$

 Created by Python create_sdf_string function

 29 33  0  0  0  0  0  0  0  0999 V2000
    8.8270   -7.0288   18.4251 C   0  0  0  0  0  0  0  0  0  0  0  0
    9.1576   -4.6236   15.8860 O   0  0  0  0  0  0  0  0  0  0  0  0
    9.1509   -5.9108   17.7177 C   0  0  0  0  0  0  0  0  0  0  0  0
    3.6373   -9.5349   16.0582 N   0  0  0  0  0  0  0  0  0  0  0  0
    9.9275   -4.8001   18.0438 N   0  0  0  0  0  0  0  0  0  0  0  0
    8.5908   -5.7425   16.4412 C   0  0  0  0  0  0  0  0  0  0  0  0
   10.5993   -4.8981   21.6068 C   0  0  0  0  0  0  0  0  0  0  0  0
   10.4258   -3.0106   23.0998 C   0  0  0  0  0  0  0  0  0  0  0  0
   10.2148   -3.4364   25.4200 C   0  0  0  0  0  0  0  0  0  0  0  0
    9.7853   -1.1840   24.4927 C   0  0  0  0  0  0  0  0  0  0  0  0
    5.0276   -8.5227   17.5352 C   0  0  0  0  0  0  0  0  0  0  0  0
    9.8187   -2.0895   25.5800 C   0  0  0  0  0  0  0  0  0  0  0  0
    5.6473   -8.7216   15.3158 C   0  0  0  0  0  0  0  0  0  0  0  0
   10.7581   -3.1233   19.4720 N   0  0  0  0  0  0  0  0  0  0  0  0
    9.9571   -4.0573   16.8866 C   0  0  0  0  0  0  0  0  0  0  0  0
    7.6213   -6.5618   16.0087 C   0  0  0  0  0  0  0  0  0  0  0  0
   10.8583   -2.6527   20.7222 C   0  0  0  0  0  0  0  0  0  0  0  0
   10.6412   -3.5089   21.7936 C   0  0  0  0  0  0  0  0  0  0  0  0
   10.4972   -3.8968   24.1589 C   0  0  0  0  0  0  0  0  0  0  0  0
    5.9260   -8.2736   16.5517 C   0  0  0  0  0  0  0  0  0  0  0  0
    3.8816   -9.1166   17.2493 C   0  0  0  0  0  0  0  0  0  0  0  0
   10.1297   -1.6575   23.2324 C   0  0  0  0  0  0  0  0  0  0  0  0
    9.4684   -1.6929   26.7263 F   0  0  0  0  0  0  0  0  0  0  0  0
    7.7963   -7.7906   17.9837 C   0  0  0  0  0  0  0  0  0  0  0  0
   10.5884   -3.0725   16.7902 O   0  0  0  0  0  0  0  0  0  0  0  0
   10.4323   -5.3494   20.3516 C   0  0  0  0  0  0  0  0  0  0  0  0
    7.1156   -7.5454   16.8218 C   0  0  0  0  0  0  0  0  0  0  0  0
   10.3885   -4.4388   19.2773 C   0  0  0  0  0  0  0  0  0  0  0  0
    4.5160   -9.3822   15.0841 C   0  0  0  0  0  0  0  0  0  0  0  0
  1  3  4  0
  1 24  4  0
  2  6  4  0
  2 15  4  0
  3  5  4  0
  3  6  4  0
  4 21  4  0
  4 29  4  0
  5 15  4  0
  5 28  1  0
  6 16  4  0
  7 18  4  0
  7 26  4  0
  8 18  1  0
  8 19  4  0
  8 22  4  0
  9 12  4  0
  9 19  4  0
 10 12  4  0
 10 22  4  0
 11 20  4  0
 11 21  4  0
 12 23  1  0
 13 20  4  0
 13 29  4  0
 14 17  4  0
 14 28  4  0
 15 25  2  0
 16 27  4  0
 17 18  4  0
 20 27  1  0
 24 27  4  0
 26 28  4  0
M  END
$$$$

 Created by Python create_sdf_string function

 29 33  0  0  0  0  0  0  0  0999 V2000
    8.8270   -7.0288   18.4251 C   0  0  0  0  0  0  0  0  0  0  0  0
    9.1576   -4.6236   15.8860 O   0  0  0  0  0  0  0  0  0  0  0  0
    9.1509   -5.9108   17.7177 C   0  0  0  0  0  0  0  0  0  0  0  0
    3.6373   -9.5349   16.0582 N   0  0  0  0  0  0  0  0  0  0  0  0
    9.9275   -4.8001   18.0438 N   0  0  0  0  0  0  0  0  0  0  0  0
    8.5908   -5.7425   16.4412 C   0  0  0  0  0  0  0  0  0  0  0  0
   10.5993   -4.8981   21.6068 C   0  0  0  0  0  0  0  0  0  0  0  0
   10.4258   -3.0106   23.0998 C   0  0  0  0  0  0  0  0  0  0  0  0
   10.2148   -3.4364   25.4200 C   0  0  0  0  0  0  0  0  0  0  0  0
    9.7853   -1.1840   24.4927 C   0  0  0  0  0  0  0  0  0  0  0  0
    5.0276   -8.5227   17.5352 C   0  0  0  0  0  0  0  0  0  0  0  0
    9.8187   -2.0895   25.5800 C   0  0  0  0  0  0  0  0  0  0  0  0
    5.6473   -8.7216   15.3158 C   0  0  0  0  0  0  0  0  0  0  0  0
   10.7581   -3.1233   19.4720 N   0  0  0  0  0  0  0  0  0  0  0  0
    9.9571   -4.0573   16.8866 C   0  0  0  0  0  0  0  0  0  0  0  0
    7.6213   -6.5618   16.0087 C   0  0  0  0  0  0  0  0  0  0  0  0
   10.8583   -2.6527   20.7222 C   0  0  0  0  0  0  0  0  0  0  0  0
   10.6412   -3.5089   21.7936 C   0  0  0  0  0  0  0  0  0  0  0  0
   10.4972   -3.8968   24.1589 C   0  0  0  0  0  0  0  0  0  0  0  0
    5.9260   -8.2736   16.5517 C   0  0  0  0  0  0  0  0  0  0  0  0
    3.8816   -9.1166   17.2493 C   0  0  0  0  0  0  0  0  0  0  0  0
   10.1297   -1.6575   23.2324 C   0  0  0  0  0  0  0  0  0  0  0  0
    9.4684   -1.6929   26.7263 F   0  0  0  0  0  0  0  0  0  0  0  0
    7.7963   -7.7906   17.9837 C   0  0  0  0  0  0  0  0  0  0  0  0
   10.5884   -3.0725   16.7902 O   0  0  0  0  0  0  0  0  0  0  0  0
   10.4323   -5.3494   20.3516 C   0  0  0  0  0  0  0  0  0  0  0  0
    7.1156   -7.5454   16.8218 C   0  0  0  0  0  0  0  0  0  0  0  0
   10.3885   -4.4388   19.2773 C   0  0  0  0  0  0  0  0  0  0  0  0
    4.5160   -9.3822   15.0841 C   0  0  0  0  0  0  0  0  0  0  0  0
  1  3  4  0
  1 24  4  0
  2  6  4  0
  2 15  4  0
  3  5  4  0
  3  6  4  0
  4 21  4  0
  4 29  4  0
  5 15  4  0
  5 28  1  0
  6 16  4  0
  7 18  4  0
  7 26  4  0
  8 18  1  0
  8 19  4  0
  8 22  4  0
  9 12  4  0
  9 19  4  0
 10 12  4  0
 10 22  4  0
 11 20  4  0
 11 21  4  0
 12 23  1  0
 13 20  4  0
 13 29  4  0
 14 17  4  0
 14 28  4  0
 15 25  2  0
 16 27  4  0
 17 18  4  0
 20 27  1  0
 24 27  4  0
 26 28  4  0
M  END
$$$$

 Created by Python create_sdf_string function

 29 33  0  0  0  0  0  0  0  0999 V2000
    8.8270   -7.0288   18.4251 C   0  0  0  0  0  0  0  0  0  0  0  0
    9.1576   -4.6236   15.8860 O   0  0  0  0  0  0  0  0  0  0  0  0
    9.1509   -5.9108   17.7177 C   0  0  0  0  0  0  0  0  0  0  0  0
    3.6373   -9.5349   16.0582 N   0  0  0  0  0  0  0  0  0  0  0  0
    9.9275   -4.8001   18.0438 N   0  0  0  0  0  0  0  0  0  0  0  0
    8.5908   -5.7425   16.4412 C   0  0  0  0  0  0  0  0  0  0  0  0
   10.5993   -4.8981   21.6068 C   0  0  0  0  0  0  0  0  0  0  0  0
   10.4258   -3.0106   23.0998 C   0  0  0  0  0  0  0  0  0  0  0  0
   10.2148   -3.4364   25.4200 C   0  0  0  0  0  0  0  0  0  0  0  0
    9.7853   -1.1840   24.4927 C   0  0  0  0  0  0  0  0  0  0  0  0
    5.0276   -8.5227   17.5352 C   0  0  0  0  0  0  0  0  0  0  0  0
    9.8187   -2.0895   25.5800 C   0  0  0  0  0  0  0  0  0  0  0  0
    5.6473   -8.7216   15.3158 C   0  0  0  0  0  0  0  0  0  0  0  0
   10.7581   -3.1233   19.4720 N   0  0  0  0  0  0  0  0  0  0  0  0
    9.9571   -4.0573   16.8866 C   0  0  0  0  0  0  0  0  0  0  0  0
    7.6213   -6.5618   16.0087 C   0  0  0  0  0  0  0  0  0  0  0  0
   10.8583   -2.6527   20.7222 C   0  0  0  0  0  0  0  0  0  0  0  0
   10.6412   -3.5089   21.7936 C   0  0  0  0  0  0  0  0  0  0  0  0
   10.4972   -3.8968   24.1589 C   0  0  0  0  0  0  0  0  0  0  0  0
    5.9260   -8.2736   16.5517 C   0  0  0  0  0  0  0  0  0  0  0  0
    3.8816   -9.1166   17.2493 C   0  0  0  0  0  0  0  0  0  0  0  0
   10.1297   -1.6575   23.2324 C   0  0  0  0  0  0  0  0  0  0  0  0
    9.4684   -1.6929   26.7263 F   0  0  0  0  0  0  0  0  0  0  0  0
    7.7963   -7.7906   17.9837 C   0  0  0  0  0  0  0  0  0  0  0  0
   10.5884   -3.0725   16.7902 O   0  0  0  0  0  0  0  0  0  0  0  0
   10.4323   -5.3494   20.3516 C   0  0  0  0  0  0  0  0  0  0  0  0
    7.1156   -7.5454   16.8218 C   0  0  0  0  0  0  0  0  0  0  0  0
   10.3885   -4.4388   19.2773 C   0  0  0  0  0  0  0  0  0  0  0  0
    4.5160   -9.3822   15.0841 C   0  0  0  0  0  0  0  0  0  0  0  0
  1  3  4  0
  1 24  4  0
  2  6  4  0
  2 15  4  0
  3  5  4  0
  3  6  4  0
  4 21  4  0
  4 29  4  0
  5 15  4  0
  5 28  1  0
  6 16  4  0
  7 18  4  0
  7 26  4  0
  8 18  1  0
  8 19  4  0
  8 22  4  0
  9 12  4  0
  9 19  4  0
 10 12  4  0
 10 22  4  0
 11 20  4  0
 11 21  4  0
 12 23  1  0
 13 20  4  0
 13 29  4  0
 14 17  4  0
 14 28  4  0
 15 25  2  0
 16 27  4  0
 17 18  4  0
 20 27  1  0
 24 27  4  0
 26 28  4  0
M  END
$$$$

 Created by Python create_sdf_string function

 29 33  0  0  0  0  0  0  0  0999 V2000
    8.8270   -7.0288   18.4251 C   0  0  0  0  0  0  0  0  0  0  0  0
    9.1576   -4.6236   15.8860 O   0  0  0  0  0  0  0  0  0  0  0  0
    9.1509   -5.9108   17.7177 C   0  0  0  0  0  0  0  0  0  0  0  0
    3.6373   -9.5349   16.0582 N   0  0  0  0  0  0  0  0  0  0  0  0
    9.9275   -4.8001   18.0438 N   0  0  0  0  0  0  0  0  0  0  0  0
    8.5908   -5.7425   16.4412 C   0  0  0  0  0  0  0  0  0  0  0  0
   10.5993   -4.8981   21.6068 C   0  0  0  0  0  0  0  0  0  0  0  0
   10.4258   -3.0106   23.0998 C   0  0  0  0  0  0  0  0  0  0  0  0
   10.2148   -3.4364   25.4200 C   0  0  0  0  0  0  0  0  0  0  0  0
    9.7853   -1.1840   24.4927 C   0  0  0  0  0  0  0  0  0  0  0  0
    5.0276   -8.5227   17.5352 C   0  0  0  0  0  0  0  0  0  0  0  0
    9.8187   -2.0895   25.5800 C   0  0  0  0  0  0  0  0  0  0  0  0
    5.6473   -8.7216   15.3158 C   0  0  0  0  0  0  0  0  0  0  0  0
   10.7581   -3.1233   19.4720 N   0  0  0  0  0  0  0  0  0  0  0  0
    9.9571   -4.0573   16.8866 C   0  0  0  0  0  0  0  0  0  0  0  0
    7.6213   -6.5618   16.0087 C   0  0  0  0  0  0  0  0  0  0  0  0
   10.8583   -2.6527   20.7222 C   0  0  0  0  0  0  0  0  0  0  0  0
   10.6412   -3.5089   21.7936 C   0  0  0  0  0  0  0  0  0  0  0  0
   10.4972   -3.8968   24.1589 C   0  0  0  0  0  0  0  0  0  0  0  0
    5.9260   -8.2736   16.5517 C   0  0  0  0  0  0  0  0  0  0  0  0
    3.8816   -9.1166   17.2493 C   0  0  0  0  0  0  0  0  0  0  0  0
   10.1297   -1.6575   23.2324 C   0  0  0  0  0  0  0  0  0  0  0  0
    9.4684   -1.6929   26.7263 F   0  0  0  0  0  0  0  0  0  0  0  0
    7.7963   -7.7906   17.9837 C   0  0  0  0  0  0  0  0  0  0  0  0
   10.5884   -3.0725   16.7902 O   0  0  0  0  0  0  0  0  0  0  0  0
   10.4323   -5.3494   20.3516 C   0  0  0  0  0  0  0  0  0  0  0  0
    7.1156   -7.5454   16.8218 C   0  0  0  0  0  0  0  0  0  0  0  0
   10.3885   -4.4388   19.2773 C   0  0  0  0  0  0  0  0  0  0  0  0
    4.5160   -9.3822   15.0841 C   0  0  0  0  0  0  0  0  0  0  0  0
  1  3  4  0
  1 24  4  0
  2  6  4  0
  2 15  4  0
  3  5  4  0
  3  6  4  0
  4 21  4  0
  4 29  4  0
  5 15  4  0
  5 28  1  0
  6 16  4  0
  7 18  4  0
  7 26  4  0
  8 18  1  0
  8 19  4  0
  8 22  4  0
  9 12  4  0
  9 19  4  0
 10 12  4  0
 10 22  4  0
 11 20  4  0
 11 21  4  0
 12 23  1  0
 13 20  4  0
 13 29  4  0
 14 17  4  0
 14 28  4  0
 15 25  2  0
 16 27  4  0
 17 18  4  0
 20 27  1  0
 24 27  4  0
 26 28  4  0
M  END
$$$$

 Created by Python create_sdf_string function

 29 33  0  0  0  0  0  0  0  0999 V2000
    8.8270   -7.0288   18.4251 C   0  0  0  0  0  0  0  0  0  0  0  0
    9.1576   -4.6236   15.8860 O   0  0  0  0  0  0  0  0  0  0  0  0
    9.1509   -5.9108   17.7177 C   0  0  0  0  0  0  0  0  0  0  0  0
    3.6373   -9.5349   16.0582 N   0  0  0  0  0  0  0  0  0  0  0  0
    9.9275   -4.8001   18.0438 N   0  0  0  0  0  0  0  0  0  0  0  0
    8.5908   -5.7425   16.4412 C   0  0  0  0  0  0  0  0  0  0  0  0
   10.5993   -4.8981   21.6068 C   0  0  0  0  0  0  0  0  0  0  0  0
   10.4258   -3.0106   23.0998 C   0  0  0  0  0  0  0  0  0  0  0  0
   10.2148   -3.4364   25.4200 C   0  0  0  0  0  0  0  0  0  0  0  0
    9.7853   -1.1840   24.4927 C   0  0  0  0  0  0  0  0  0  0  0  0
    5.0276   -8.5227   17.5352 C   0  0  0  0  0  0  0  0  0  0  0  0
    9.8187   -2.0895   25.5800 C   0  0  0  0  0  0  0  0  0  0  0  0
    5.6473   -8.7216   15.3158 C   0  0  0  0  0  0  0  0  0  0  0  0
   10.7581   -3.1233   19.4720 N   0  0  0  0  0  0  0  0  0  0  0  0
    9.9571   -4.0573   16.8866 C   0  0  0  0  0  0  0  0  0  0  0  0
    7.6213   -6.5618   16.0087 C   0  0  0  0  0  0  0  0  0  0  0  0
   10.8583   -2.6527   20.7222 C   0  0  0  0  0  0  0  0  0  0  0  0
   10.6412   -3.5089   21.7936 C   0  0  0  0  0  0  0  0  0  0  0  0
   10.4972   -3.8968   24.1589 C   0  0  0  0  0  0  0  0  0  0  0  0
    5.9260   -8.2736   16.5517 C   0  0  0  0  0  0  0  0  0  0  0  0
    3.8816   -9.1166   17.2493 C   0  0  0  0  0  0  0  0  0  0  0  0
   10.1297   -1.6575   23.2324 C   0  0  0  0  0  0  0  0  0  0  0  0
    9.4684   -1.6929   26.7263 F   0  0  0  0  0  0  0  0  0  0  0  0
    7.7963   -7.7906   17.9837 C   0  0  0  0  0  0  0  0  0  0  0  0
   10.5884   -3.0725   16.7902 O   0  0  0  0  0  0  0  0  0  0  0  0
   10.4323   -5.3494   20.3516 C   0  0  0  0  0  0  0  0  0  0  0  0
    7.1156   -7.5454   16.8218 C   0  0  0  0  0  0  0  0  0  0  0  0
   10.3885   -4.4388   19.2773 C   0  0  0  0  0  0  0  0  0  0  0  0
    4.5160   -9.3822   15.0841 C   0  0  0  0  0  0  0  0  0  0  0  0
  1  3  4  0
  1 24  4  0
  2  6  4  0
  2 15  4  0
  3  5  4  0
  3  6  4  0
  4 21  4  0
  4 29  4  0
  5 15  4  0
  5 28  1  0
  6 16  4  0
  7 18  4  0
  7 26  4  0
  8 18  1  0
  8 19  4  0
  8 22  4  0
  9 12  4  0
  9 19  4  0
 10 12  4  0
 10 22  4  0
 11 20  4  0
 11 21  4  0
 12 23  1  0
 13 20  4  0
 13 29  4  0
 14 17  4  0
 14 28  4  0
 15 25  2  0
 16 27  4  0
 17 18  4  0
 20 27  1  0
 24 27  4  0
 26 28  4  0
M  END
$$$$

 Created by Python create_sdf_string function

 29 33  0  0  0  0  0  0  0  0999 V2000
    8.8270   -7.0288   18.4251 C   0  0  0  0  0  0  0  0  0  0  0  0
    9.1576   -4.6236   15.8860 O   0  0  0  0  0  0  0  0  0  0  0  0
    9.1509   -5.9108   17.7177 C   0  0  0  0  0  0  0  0  0  0  0  0
    3.6373   -9.5349   16.0582 N   0  0  0  0  0  0  0  0  0  0  0  0
    9.9275   -4.8001   18.0438 N   0  0  0  0  0  0  0  0  0  0  0  0
    8.5908   -5.7425   16.4412 C   0  0  0  0  0  0  0  0  0  0  0  0
   10.5993   -4.8981   21.6068 C   0  0  0  0  0  0  0  0  0  0  0  0
   10.4258   -3.0106   23.0998 C   0  0  0  0  0  0  0  0  0  0  0  0
   10.2148   -3.4364   25.4200 C   0  0  0  0  0  0  0  0  0  0  0  0
    9.7853   -1.1840   24.4927 C   0  0  0  0  0  0  0  0  0  0  0  0
    5.0276   -8.5227   17.5352 C   0  0  0  0  0  0  0  0  0  0  0  0
    9.8187   -2.0895   25.5800 C   0  0  0  0  0  0  0  0  0  0  0  0
    5.6473   -8.7216   15.3158 C   0  0  0  0  0  0  0  0  0  0  0  0
   10.7581   -3.1233   19.4720 N   0  0  0  0  0  0  0  0  0  0  0  0
    9.9571   -4.0573   16.8866 C   0  0  0  0  0  0  0  0  0  0  0  0
    7.6213   -6.5618   16.0087 C   0  0  0  0  0  0  0  0  0  0  0  0
   10.8583   -2.6527   20.7222 C   0  0  0  0  0  0  0  0  0  0  0  0
   10.6412   -3.5089   21.7936 C   0  0  0  0  0  0  0  0  0  0  0  0
   10.4972   -3.8968   24.1589 C   0  0  0  0  0  0  0  0  0  0  0  0
    5.9260   -8.2736   16.5517 C   0  0  0  0  0  0  0  0  0  0  0  0
    3.8816   -9.1166   17.2493 C   0  0  0  0  0  0  0  0  0  0  0  0
   10.1297   -1.6575   23.2324 C   0  0  0  0  0  0  0  0  0  0  0  0
    9.4684   -1.6929   26.7263 F   0  0  0  0  0  0  0  0  0  0  0  0
    7.7963   -7.7906   17.9837 C   0  0  0  0  0  0  0  0  0  0  0  0
   10.5884   -3.0725   16.7902 O   0  0  0  0  0  0  0  0  0  0  0  0
   10.4323   -5.3494   20.3516 C   0  0  0  0  0  0  0  0  0  0  0  0
    7.1156   -7.5454   16.8218 C   0  0  0  0  0  0  0  0  0  0  0  0
   10.3885   -4.4388   19.2773 C   0  0  0  0  0  0  0  0  0  0  0  0
    4.5160   -9.3822   15.0841 C   0  0  0  0  0  0  0  0  0  0  0  0
  1  3  4  0
  1 24  4  0
  2  6  4  0
  2 15  4  0
  3  5  4  0
  3  6  4  0
  4 21  4  0
  4 29  4  0
  5 15  4  0
  5 28  1  0
  6 16  4  0
  7 18  4  0
  7 26  4  0
  8 18  1  0
  8 19  4  0
  8 22  4  0
  9 12  4  0
  9 19  4  0
 10 12  4  0
 10 22  4  0
 11 20  4  0
 11 21  4  0
 12 23  1  0
 13 20  4  0
 13 29  4  0
 14 17  4  0
 14 28  4  0
 15 25  2  0
 16 27  4  0
 17 18  4  0
 20 27  1  0
 24 27  4  0
 26 28  4  0
M  END
$$$$

 Created by Python create_sdf_string function

 29 33  0  0  0  0  0  0  0  0999 V2000
    8.8270   -7.0288   18.4251 C   0  0  0  0  0  0  0  0  0  0  0  0
    9.1576   -4.6236   15.8860 O   0  0  0  0  0  0  0  0  0  0  0  0
    9.1509   -5.9108   17.7177 C   0  0  0  0  0  0  0  0  0  0  0  0
    3.6373   -9.5349   16.0582 N   0  0  0  0  0  0  0  0  0  0  0  0
    9.9275   -4.8001   18.0438 N   0  0  0  0  0  0  0  0  0  0  0  0
    8.5908   -5.7425   16.4412 C   0  0  0  0  0  0  0  0  0  0  0  0
   10.5993   -4.8981   21.6068 C   0  0  0  0  0  0  0  0  0  0  0  0
   10.4258   -3.0106   23.0998 C   0  0  0  0  0  0  0  0  0  0  0  0
   10.2148   -3.4364   25.4200 C   0  0  0  0  0  0  0  0  0  0  0  0
    9.7853   -1.1840   24.4927 C   0  0  0  0  0  0  0  0  0  0  0  0
    5.0276   -8.5227   17.5352 C   0  0  0  0  0  0  0  0  0  0  0  0
    9.8187   -2.0895   25.5800 C   0  0  0  0  0  0  0  0  0  0  0  0
    5.6473   -8.7216   15.3158 C   0  0  0  0  0  0  0  0  0  0  0  0
   10.7581   -3.1233   19.4720 N   0  0  0  0  0  0  0  0  0  0  0  0
    9.9571   -4.0573   16.8866 C   0  0  0  0  0  0  0  0  0  0  0  0
    7.6213   -6.5618   16.0087 C   0  0  0  0  0  0  0  0  0  0  0  0
   10.8583   -2.6527   20.7222 C   0  0  0  0  0  0  0  0  0  0  0  0
   10.6412   -3.5089   21.7936 C   0  0  0  0  0  0  0  0  0  0  0  0
   10.4972   -3.8968   24.1589 C   0  0  0  0  0  0  0  0  0  0  0  0
    5.9260   -8.2736   16.5517 C   0  0  0  0  0  0  0  0  0  0  0  0
    3.8816   -9.1166   17.2493 C   0  0  0  0  0  0  0  0  0  0  0  0
   10.1297   -1.6575   23.2324 C   0  0  0  0  0  0  0  0  0  0  0  0
    9.4684   -1.6929   26.7263 F   0  0  0  0  0  0  0  0  0  0  0  0
    7.7963   -7.7906   17.9837 C   0  0  0  0  0  0  0  0  0  0  0  0
   10.5884   -3.0725   16.7902 O   0  0  0  0  0  0  0  0  0  0  0  0
   10.4323   -5.3494   20.3516 C   0  0  0  0  0  0  0  0  0  0  0  0
    7.1156   -7.5454   16.8218 C   0  0  0  0  0  0  0  0  0  0  0  0
   10.3885   -4.4388   19.2773 C   0  0  0  0  0  0  0  0  0  0  0  0
    4.5160   -9.3822   15.0841 C   0  0  0  0  0  0  0  0  0  0  0  0
  1  3  4  0
  1 24  4  0
  2  6  4  0
  2 15  4  0
  3  5  4  0
  3  6  4  0
  4 21  4  0
  4 29  4  0
  5 15  4  0
  5 28  1  0
  6 16  4  0
  7 18  4  0
  7 26  4  0
  8 18  1  0
  8 19  4  0
  8 22  4  0
  9 12  4  0
  9 19  4  0
 10 12  4  0
 10 22  4  0
 11 20  4  0
 11 21  4  0
 12 23  1  0
 13 20  4  0
 13 29  4  0
 14 17  4  0
 14 28  4  0
 15 25  2  0
 16 27  4  0
 17 18  4  0
 20 27  1  0
 24 27  4  0
 26 28  4  0
M  END
$$$$

 Created by Python create_sdf_string function

 29 33  0  0  0  0  0  0  0  0999 V2000
    8.8270   -7.0288   18.4251 C   0  0  0  0  0  0  0  0  0  0  0  0
    9.1576   -4.6236   15.8860 O   0  0  0  0  0  0  0  0  0  0  0  0
    9.1509   -5.9108   17.7177 C   0  0  0  0  0  0  0  0  0  0  0  0
    3.6373   -9.5349   16.0582 N   0  0  0  0  0  0  0  0  0  0  0  0
    9.9275   -4.8001   18.0438 N   0  0  0  0  0  0  0  0  0  0  0  0
    8.5908   -5.7425   16.4412 C   0  0  0  0  0  0  0  0  0  0  0  0
   10.5993   -4.8981   21.6068 C   0  0  0  0  0  0  0  0  0  0  0  0
   10.4258   -3.0106   23.0998 C   0  0  0  0  0  0  0  0  0  0  0  0
   10.2148   -3.4364   25.4200 C   0  0  0  0  0  0  0  0  0  0  0  0
    9.7853   -1.1840   24.4927 C   0  0  0  0  0  0  0  0  0  0  0  0
    5.0276   -8.5227   17.5352 C   0  0  0  0  0  0  0  0  0  0  0  0
    9.8187   -2.0895   25.5800 C   0  0  0  0  0  0  0  0  0  0  0  0
    5.6473   -8.7216   15.3158 C   0  0  0  0  0  0  0  0  0  0  0  0
   10.7581   -3.1233   19.4720 N   0  0  0  0  0  0  0  0  0  0  0  0
    9.9571   -4.0573   16.8866 C   0  0  0  0  0  0  0  0  0  0  0  0
    7.6213   -6.5618   16.0087 C   0  0  0  0  0  0  0  0  0  0  0  0
   10.8583   -2.6527   20.7222 C   0  0  0  0  0  0  0  0  0  0  0  0
   10.6412   -3.5089   21.7936 C   0  0  0  0  0  0  0  0  0  0  0  0
   10.4972   -3.8968   24.1589 C   0  0  0  0  0  0  0  0  0  0  0  0
    5.9260   -8.2736   16.5517 C   0  0  0  0  0  0  0  0  0  0  0  0
    3.8816   -9.1166   17.2493 C   0  0  0  0  0  0  0  0  0  0  0  0
   10.1297   -1.6575   23.2324 C   0  0  0  0  0  0  0  0  0  0  0  0
    9.4684   -1.6929   26.7263 F   0  0  0  0  0  0  0  0  0  0  0  0
    7.7963   -7.7906   17.9837 C   0  0  0  0  0  0  0  0  0  0  0  0
   10.5884   -3.0725   16.7902 O   0  0  0  0  0  0  0  0  0  0  0  0
   10.4323   -5.3494   20.3516 C   0  0  0  0  0  0  0  0  0  0  0  0
    7.1156   -7.5454   16.8218 C   0  0  0  0  0  0  0  0  0  0  0  0
   10.3885   -4.4388   19.2773 C   0  0  0  0  0  0  0  0  0  0  0  0
    4.5160   -9.3822   15.0841 C   0  0  0  0  0  0  0  0  0  0  0  0
  1  3  4  0
  1 24  4  0
  2  6  4  0
  2 15  4  0
  3  5  4  0
  3  6  4  0
  4 21  4  0
  4 29  4  0
  5 15  4  0
  5 28  1  0
  6 16  4  0
  7 18  4  0
  7 26  4  0
  8 18  1  0
  8 19  4  0
  8 22  4  0
  9 12  4  0
  9 19  4  0
 10 12  4  0
 10 22  4  0
 11 20  4  0
 11 21  4  0
 12 23  1  0
 13 20  4  0
 13 29  4  0
 14 17  4  0
 14 28  4  0
 15 25  2  0
 16 27  4  0
 17 18  4  0
 20 27  1  0
 24 27  4  0
 26 28  4  0
M  END
$$$$

 Created by Python create_sdf_string function

 29 33  0  0  0  0  0  0  0  0999 V2000
    8.8270   -7.0288   18.4251 C   0  0  0  0  0  0  0  0  0  0  0  0
    9.1576   -4.6236   15.8860 O   0  0  0  0  0  0  0  0  0  0  0  0
    9.1509   -5.9108   17.7177 C   0  0  0  0  0  0  0  0  0  0  0  0
    3.6373   -9.5349   16.0582 N   0  0  0  0  0  0  0  0  0  0  0  0
    9.9275   -4.8001   18.0438 N   0  0  0  0  0  0  0  0  0  0  0  0
    8.5908   -5.7425   16.4412 C   0  0  0  0  0  0  0  0  0  0  0  0
   10.5993   -4.8981   21.6068 C   0  0  0  0  0  0  0  0  0  0  0  0
   10.4258   -3.0106   23.0998 C   0  0  0  0  0  0  0  0  0  0  0  0
   10.2148   -3.4364   25.4200 C   0  0  0  0  0  0  0  0  0  0  0  0
    9.7853   -1.1840   24.4927 C   0  0  0  0  0  0  0  0  0  0  0  0
    5.0276   -8.5227   17.5352 C   0  0  0  0  0  0  0  0  0  0  0  0
    9.8187   -2.0895   25.5800 C   0  0  0  0  0  0  0  0  0  0  0  0
    5.6473   -8.7216   15.3158 C   0  0  0  0  0  0  0  0  0  0  0  0
   10.7581   -3.1233   19.4720 N   0  0  0  0  0  0  0  0  0  0  0  0
    9.9571   -4.0573   16.8866 C   0  0  0  0  0  0  0  0  0  0  0  0
    7.6213   -6.5618   16.0087 C   0  0  0  0  0  0  0  0  0  0  0  0
   10.8583   -2.6527   20.7222 C   0  0  0  0  0  0  0  0  0  0  0  0
   10.6412   -3.5089   21.7936 C   0  0  0  0  0  0  0  0  0  0  0  0
   10.4972   -3.8968   24.1589 C   0  0  0  0  0  0  0  0  0  0  0  0
    5.9260   -8.2736   16.5517 C   0  0  0  0  0  0  0  0  0  0  0  0
    3.8816   -9.1166   17.2493 C   0  0  0  0  0  0  0  0  0  0  0  0
   10.1297   -1.6575   23.2324 C   0  0  0  0  0  0  0  0  0  0  0  0
    9.4684   -1.6929   26.7263 F   0  0  0  0  0  0  0  0  0  0  0  0
    7.7963   -7.7906   17.9837 C   0  0  0  0  0  0  0  0  0  0  0  0
   10.5884   -3.0725   16.7902 O   0  0  0  0  0  0  0  0  0  0  0  0
   10.4323   -5.3494   20.3516 C   0  0  0  0  0  0  0  0  0  0  0  0
    7.1156   -7.5454   16.8218 C   0  0  0  0  0  0  0  0  0  0  0  0
   10.3885   -4.4388   19.2773 C   0  0  0  0  0  0  0  0  0  0  0  0
    4.5160   -9.3822   15.0841 C   0  0  0  0  0  0  0  0  0  0  0  0
  1  3  4  0
  1 24  4  0
  2  6  4  0
  2 15  4  0
  3  5  4  0
  3  6  4  0
  4 21  4  0
  4 29  4  0
  5 15  4  0
  5 28  1  0
  6 16  4  0
  7 18  4  0
  7 26  4  0
  8 18  1  0
  8 19  4  0
  8 22  4  0
  9 12  4  0
  9 19  4  0
 10 12  4  0
 10 22  4  0
 11 20  4  0
 11 21  4  0
 12 23  1  0
 13 20  4  0
 13 29  4  0
 14 17  4  0
 14 28  4  0
 15 25  2  0
 16 27  4  0
 17 18  4  0
 20 27  1  0
 24 27  4  0
 26 28  4  0
M  END
$$$$

 Created by Python create_sdf_string function

 29 33  0  0  0  0  0  0  0  0999 V2000
    8.8270   -7.0288   18.4251 C   0  0  0  0  0  0  0  0  0  0  0  0
    9.1576   -4.6236   15.8860 O   0  0  0  0  0  0  0  0  0  0  0  0
    9.1509   -5.9108   17.7177 C   0  0  0  0  0  0  0  0  0  0  0  0
    3.6373   -9.5349   16.0582 N   0  0  0  0  0  0  0  0  0  0  0  0
    9.9275   -4.8001   18.0438 N   0  0  0  0  0  0  0  0  0  0  0  0
    8.5908   -5.7425   16.4412 C   0  0  0  0  0  0  0  0  0  0  0  0
   10.5993   -4.8981   21.6068 C   0  0  0  0  0  0  0  0  0  0  0  0
   10.4258   -3.0106   23.0998 C   0  0  0  0  0  0  0  0  0  0  0  0
   10.2148   -3.4364   25.4200 C   0  0  0  0  0  0  0  0  0  0  0  0
    9.7853   -1.1840   24.4927 C   0  0  0  0  0  0  0  0  0  0  0  0
    5.0276   -8.5227   17.5352 C   0  0  0  0  0  0  0  0  0  0  0  0
    9.8187   -2.0895   25.5800 C   0  0  0  0  0  0  0  0  0  0  0  0
    5.6473   -8.7216   15.3158 C   0  0  0  0  0  0  0  0  0  0  0  0
   10.7581   -3.1233   19.4720 N   0  0  0  0  0  0  0  0  0  0  0  0
    9.9571   -4.0573   16.8866 C   0  0  0  0  0  0  0  0  0  0  0  0
    7.6213   -6.5618   16.0087 C   0  0  0  0  0  0  0  0  0  0  0  0
   10.8583   -2.6527   20.7222 C   0  0  0  0  0  0  0  0  0  0  0  0
   10.6412   -3.5089   21.7936 C   0  0  0  0  0  0  0  0  0  0  0  0
   10.4972   -3.8968   24.1589 C   0  0  0  0  0  0  0  0  0  0  0  0
    5.9260   -8.2736   16.5517 C   0  0  0  0  0  0  0  0  0  0  0  0
    3.8816   -9.1166   17.2493 C   0  0  0  0  0  0  0  0  0  0  0  0
   10.1297   -1.6575   23.2324 C   0  0  0  0  0  0  0  0  0  0  0  0
    9.4684   -1.6929   26.7263 F   0  0  0  0  0  0  0  0  0  0  0  0
    7.7963   -7.7906   17.9837 C   0  0  0  0  0  0  0  0  0  0  0  0
   10.5884   -3.0725   16.7902 O   0  0  0  0  0  0  0  0  0  0  0  0
   10.4323   -5.3494   20.3516 C   0  0  0  0  0  0  0  0  0  0  0  0
    7.1156   -7.5454   16.8218 C   0  0  0  0  0  0  0  0  0  0  0  0
   10.3885   -4.4388   19.2773 C   0  0  0  0  0  0  0  0  0  0  0  0
    4.5160   -9.3822   15.0841 C   0  0  0  0  0  0  0  0  0  0  0  0
  1  3  4  0
  1 24  4  0
  2  6  4  0
  2 15  4  0
  3  5  4  0
  3  6  4  0
  4 21  4  0
  4 29  4  0
  5 15  4  0
  5 28  1  0
  6 16  4  0
  7 18  4  0
  7 26  4  0
  8 18  1  0
  8 19  4  0
  8 22  4  0
  9 12  4  0
  9 19  4  0
 10 12  4  0
 10 22  4  0
 11 20  4  0
 11 21  4  0
 12 23  1  0
 13 20  4  0
 13 29  4  0
 14 17  4  0
 14 28  4  0
 15 25  2  0
 16 27  4  0
 17 18  4  0
 20 27  1  0
 24 27  4  0
 26 28  4  0
M  END
$$$$

 Created by Python create_sdf_string function

 29 33  0  0  0  0  0  0  0  0999 V2000
    8.8270   -7.0288   18.4251 C   0  0  0  0  0  0  0  0  0  0  0  0
    9.1576   -4.6236   15.8860 O   0  0  0  0  0  0  0  0  0  0  0  0
    9.1509   -5.9108   17.7177 C   0  0  0  0  0  0  0  0  0  0  0  0
    3.6373   -9.5349   16.0582 N   0  0  0  0  0  0  0  0  0  0  0  0
    9.9275   -4.8001   18.0438 N   0  0  0  0  0  0  0  0  0  0  0  0
    8.5908   -5.7425   16.4412 C   0  0  0  0  0  0  0  0  0  0  0  0
   10.5993   -4.8981   21.6068 C   0  0  0  0  0  0  0  0  0  0  0  0
   10.4258   -3.0106   23.0998 C   0  0  0  0  0  0  0  0  0  0  0  0
   10.2148   -3.4364   25.4200 C   0  0  0  0  0  0  0  0  0  0  0  0
    9.7853   -1.1840   24.4927 C   0  0  0  0  0  0  0  0  0  0  0  0
    5.0276   -8.5227   17.5352 C   0  0  0  0  0  0  0  0  0  0  0  0
    9.8187   -2.0895   25.5800 C   0  0  0  0  0  0  0  0  0  0  0  0
    5.6473   -8.7216   15.3158 C   0  0  0  0  0  0  0  0  0  0  0  0
   10.7581   -3.1233   19.4720 N   0  0  0  0  0  0  0  0  0  0  0  0
    9.9571   -4.0573   16.8866 C   0  0  0  0  0  0  0  0  0  0  0  0
    7.6213   -6.5618   16.0087 C   0  0  0  0  0  0  0  0  0  0  0  0
   10.8583   -2.6527   20.7222 C   0  0  0  0  0  0  0  0  0  0  0  0
   10.6412   -3.5089   21.7936 C   0  0  0  0  0  0  0  0  0  0  0  0
   10.4972   -3.8968   24.1589 C   0  0  0  0  0  0  0  0  0  0  0  0
    5.9260   -8.2736   16.5517 C   0  0  0  0  0  0  0  0  0  0  0  0
    3.8816   -9.1166   17.2493 C   0  0  0  0  0  0  0  0  0  0  0  0
   10.1297   -1.6575   23.2324 C   0  0  0  0  0  0  0  0  0  0  0  0
    9.4684   -1.6929   26.7263 F   0  0  0  0  0  0  0  0  0  0  0  0
    7.7963   -7.7906   17.9837 C   0  0  0  0  0  0  0  0  0  0  0  0
   10.5884   -3.0725   16.7902 O   0  0  0  0  0  0  0  0  0  0  0  0
   10.4323   -5.3494   20.3516 C   0  0  0  0  0  0  0  0  0  0  0  0
    7.1156   -7.5454   16.8218 C   0  0  0  0  0  0  0  0  0  0  0  0
   10.3885   -4.4388   19.2773 C   0  0  0  0  0  0  0  0  0  0  0  0
    4.5160   -9.3822   15.0841 C   0  0  0  0  0  0  0  0  0  0  0  0
  1  3  4  0
  1 24  4  0
  2  6  4  0
  2 15  4  0
  3  5  4  0
  3  6  4  0
  4 21  4  0
  4 29  4  0
  5 15  4  0
  5 28  1  0
  6 16  4  0
  7 18  4  0
  7 26  4  0
  8 18  1  0
  8 19  4  0
  8 22  4  0
  9 12  4  0
  9 19  4  0
 10 12  4  0
 10 22  4  0
 11 20  4  0
 11 21  4  0
 12 23  1  0
 13 20  4  0
 13 29  4  0
 14 17  4  0
 14 28  4  0
 15 25  2  0
 16 27  4  0
 17 18  4  0
 20 27  1  0
 24 27  4  0
 26 28  4  0
M  END
$$$$

 Created by Python create_sdf_string function

 29 33  0  0  0  0  0  0  0  0999 V2000
    8.8270   -7.0288   18.4251 C   0  0  0  0  0  0  0  0  0  0  0  0
    9.1576   -4.6236   15.8860 O   0  0  0  0  0  0  0  0  0  0  0  0
    9.1509   -5.9108   17.7177 C   0  0  0  0  0  0  0  0  0  0  0  0
    3.6373   -9.5349   16.0582 N   0  0  0  0  0  0  0  0  0  0  0  0
    9.9275   -4.8001   18.0438 N   0  0  0  0  0  0  0  0  0  0  0  0
    8.5908   -5.7425   16.4412 C   0  0  0  0  0  0  0  0  0  0  0  0
   10.5993   -4.8981   21.6068 C   0  0  0  0  0  0  0  0  0  0  0  0
   10.4258   -3.0106   23.0998 C   0  0  0  0  0  0  0  0  0  0  0  0
   10.2148   -3.4364   25.4200 C   0  0  0  0  0  0  0  0  0  0  0  0
    9.7853   -1.1840   24.4927 C   0  0  0  0  0  0  0  0  0  0  0  0
    5.0276   -8.5227   17.5352 C   0  0  0  0  0  0  0  0  0  0  0  0
    9.8187   -2.0895   25.5800 C   0  0  0  0  0  0  0  0  0  0  0  0
    5.6473   -8.7216   15.3158 C   0  0  0  0  0  0  0  0  0  0  0  0
   10.7581   -3.1233   19.4720 N   0  0  0  0  0  0  0  0  0  0  0  0
    9.9571   -4.0573   16.8866 C   0  0  0  0  0  0  0  0  0  0  0  0
    7.6213   -6.5618   16.0087 C   0  0  0  0  0  0  0  0  0  0  0  0
   10.8583   -2.6527   20.7222 C   0  0  0  0  0  0  0  0  0  0  0  0
   10.6412   -3.5089   21.7936 C   0  0  0  0  0  0  0  0  0  0  0  0
   10.4972   -3.8968   24.1589 C   0  0  0  0  0  0  0  0  0  0  0  0
    5.9260   -8.2736   16.5517 C   0  0  0  0  0  0  0  0  0  0  0  0
    3.8816   -9.1166   17.2493 C   0  0  0  0  0  0  0  0  0  0  0  0
   10.1297   -1.6575   23.2324 C   0  0  0  0  0  0  0  0  0  0  0  0
    9.4684   -1.6929   26.7263 F   0  0  0  0  0  0  0  0  0  0  0  0
    7.7963   -7.7906   17.9837 C   0  0  0  0  0  0  0  0  0  0  0  0
   10.5884   -3.0725   16.7902 O   0  0  0  0  0  0  0  0  0  0  0  0
   10.4323   -5.3494   20.3516 C   0  0  0  0  0  0  0  0  0  0  0  0
    7.1156   -7.5454   16.8218 C   0  0  0  0  0  0  0  0  0  0  0  0
   10.3885   -4.4388   19.2773 C   0  0  0  0  0  0  0  0  0  0  0  0
    4.5160   -9.3822   15.0841 C   0  0  0  0  0  0  0  0  0  0  0  0
  1  3  4  0
  1 24  4  0
  2  6  4  0
  2 15  4  0
  3  5  4  0
  3  6  4  0
  4 21  4  0
  4 29  4  0
  5 15  4  0
  5 28  1  0
  6 16  4  0
  7 18  4  0
  7 26  4  0
  8 18  1  0
  8 19  4  0
  8 22  4  0
  9 12  4  0
  9 19  4  0
 10 12  4  0
 10 22  4  0
 11 20  4  0
 11 21  4  0
 12 23  1  0
 13 20  4  0
 13 29  4  0
 14 17  4  0
 14 28  4  0
 15 25  2  0
 16 27  4  0
 17 18  4  0
 20 27  1  0
 24 27  4  0
 26 28  4  0
M  END
$$$$

 Created by Python create_sdf_string function

 29 33  0  0  0  0  0  0  0  0999 V2000
    8.8270   -7.0288   18.4251 C   0  0  0  0  0  0  0  0  0  0  0  0
    9.1576   -4.6236   15.8860 O   0  0  0  0  0  0  0  0  0  0  0  0
    9.1509   -5.9108   17.7177 C   0  0  0  0  0  0  0  0  0  0  0  0
    3.6373   -9.5349   16.0582 N   0  0  0  0  0  0  0  0  0  0  0  0
    9.9275   -4.8001   18.0438 N   0  0  0  0  0  0  0  0  0  0  0  0
    8.5908   -5.7425   16.4412 C   0  0  0  0  0  0  0  0  0  0  0  0
   10.5993   -4.8981   21.6068 C   0  0  0  0  0  0  0  0  0  0  0  0
   10.4258   -3.0106   23.0998 C   0  0  0  0  0  0  0  0  0  0  0  0
   10.2148   -3.4364   25.4200 C   0  0  0  0  0  0  0  0  0  0  0  0
    9.7853   -1.1840   24.4927 C   0  0  0  0  0  0  0  0  0  0  0  0
    5.0276   -8.5227   17.5352 C   0  0  0  0  0  0  0  0  0  0  0  0
    9.8187   -2.0895   25.5800 C   0  0  0  0  0  0  0  0  0  0  0  0
    5.6473   -8.7216   15.3158 C   0  0  0  0  0  0  0  0  0  0  0  0
   10.7581   -3.1233   19.4720 N   0  0  0  0  0  0  0  0  0  0  0  0
    9.9571   -4.0573   16.8866 C   0  0  0  0  0  0  0  0  0  0  0  0
    7.6213   -6.5618   16.0087 C   0  0  0  0  0  0  0  0  0  0  0  0
   10.8583   -2.6527   20.7222 C   0  0  0  0  0  0  0  0  0  0  0  0
   10.6412   -3.5089   21.7936 C   0  0  0  0  0  0  0  0  0  0  0  0
   10.4972   -3.8968   24.1589 C   0  0  0  0  0  0  0  0  0  0  0  0
    5.9260   -8.2736   16.5517 C   0  0  0  0  0  0  0  0  0  0  0  0
    3.8816   -9.1166   17.2493 C   0  0  0  0  0  0  0  0  0  0  0  0
   10.1297   -1.6575   23.2324 C   0  0  0  0  0  0  0  0  0  0  0  0
    9.4684   -1.6929   26.7263 F   0  0  0  0  0  0  0  0  0  0  0  0
    7.7963   -7.7906   17.9837 C   0  0  0  0  0  0  0  0  0  0  0  0
   10.5884   -3.0725   16.7902 O   0  0  0  0  0  0  0  0  0  0  0  0
   10.4323   -5.3494   20.3516 C   0  0  0  0  0  0  0  0  0  0  0  0
    7.1156   -7.5454   16.8218 C   0  0  0  0  0  0  0  0  0  0  0  0
   10.3885   -4.4388   19.2773 C   0  0  0  0  0  0  0  0  0  0  0  0
    4.5160   -9.3822   15.0841 C   0  0  0  0  0  0  0  0  0  0  0  0
  1  3  4  0
  1 24  4  0
  2  6  4  0
  2 15  4  0
  3  5  4  0
  3  6  4  0
  4 21  4  0
  4 29  4  0
  5 15  4  0
  5 28  1  0
  6 16  4  0
  7 18  4  0
  7 26  4  0
  8 18  1  0
  8 19  4  0
  8 22  4  0
  9 12  4  0
  9 19  4  0
 10 12  4  0
 10 22  4  0
 11 20  4  0
 11 21  4  0
 12 23  1  0
 13 20  4  0
 13 29  4  0
 14 17  4  0
 14 28  4  0
 15 25  2  0
 16 27  4  0
 17 18  4  0
 20 27  1  0
 24 27  4  0
 26 28  4  0
M  END
$$$$

 Created by Python create_sdf_string function

 29 33  0  0  0  0  0  0  0  0999 V2000
    8.8270   -7.0288   18.4251 C   0  0  0  0  0  0  0  0  0  0  0  0
    9.1576   -4.6236   15.8860 O   0  0  0  0  0  0  0  0  0  0  0  0
    9.1509   -5.9108   17.7177 C   0  0  0  0  0  0  0  0  0  0  0  0
    3.6373   -9.5349   16.0582 N   0  0  0  0  0  0  0  0  0  0  0  0
    9.9275   -4.8001   18.0438 N   0  0  0  0  0  0  0  0  0  0  0  0
    8.5908   -5.7425   16.4412 C   0  0  0  0  0  0  0  0  0  0  0  0
   10.5993   -4.8981   21.6068 C   0  0  0  0  0  0  0  0  0  0  0  0
   10.4258   -3.0106   23.0998 C   0  0  0  0  0  0  0  0  0  0  0  0
   10.2148   -3.4364   25.4200 C   0  0  0  0  0  0  0  0  0  0  0  0
    9.7853   -1.1840   24.4927 C   0  0  0  0  0  0  0  0  0  0  0  0
    5.0276   -8.5227   17.5352 C   0  0  0  0  0  0  0  0  0  0  0  0
    9.8187   -2.0895   25.5800 C   0  0  0  0  0  0  0  0  0  0  0  0
    5.6473   -8.7216   15.3158 C   0  0  0  0  0  0  0  0  0  0  0  0
   10.7581   -3.1233   19.4720 N   0  0  0  0  0  0  0  0  0  0  0  0
    9.9571   -4.0573   16.8866 C   0  0  0  0  0  0  0  0  0  0  0  0
    7.6213   -6.5618   16.0087 C   0  0  0  0  0  0  0  0  0  0  0  0
   10.8583   -2.6527   20.7222 C   0  0  0  0  0  0  0  0  0  0  0  0
   10.6412   -3.5089   21.7936 C   0  0  0  0  0  0  0  0  0  0  0  0
   10.4972   -3.8968   24.1589 C   0  0  0  0  0  0  0  0  0  0  0  0
    5.9260   -8.2736   16.5517 C   0  0  0  0  0  0  0  0  0  0  0  0
    3.8816   -9.1166   17.2493 C   0  0  0  0  0  0  0  0  0  0  0  0
   10.1297   -1.6575   23.2324 C   0  0  0  0  0  0  0  0  0  0  0  0
    9.4684   -1.6929   26.7263 F   0  0  0  0  0  0  0  0  0  0  0  0
    7.7963   -7.7906   17.9837 C   0  0  0  0  0  0  0  0  0  0  0  0
   10.5884   -3.0725   16.7902 O   0  0  0  0  0  0  0  0  0  0  0  0
   10.4323   -5.3494   20.3516 C   0  0  0  0  0  0  0  0  0  0  0  0
    7.1156   -7.5454   16.8218 C   0  0  0  0  0  0  0  0  0  0  0  0
   10.3885   -4.4388   19.2773 C   0  0  0  0  0  0  0  0  0  0  0  0
    4.5160   -9.3822   15.0841 C   0  0  0  0  0  0  0  0  0  0  0  0
  1  3  4  0
  1 24  4  0
  2  6  4  0
  2 15  4  0
  3  5  4  0
  3  6  4  0
  4 21  4  0
  4 29  4  0
  5 15  4  0
  5 28  1  0
  6 16  4  0
  7 18  4  0
  7 26  4  0
  8 18  1  0
  8 19  4  0
  8 22  4  0
  9 12  4  0
  9 19  4  0
 10 12  4  0
 10 22  4  0
 11 20  4  0
 11 21  4  0
 12 23  1  0
 13 20  4  0
 13 29  4  0
 14 17  4  0
 14 28  4  0
 15 25  2  0
 16 27  4  0
 17 18  4  0
 20 27  1  0
 24 27  4  0
 26 28  4  0
M  END
$$$$

 Created by Python create_sdf_string function

 29 33  0  0  0  0  0  0  0  0999 V2000
    8.8270   -7.0288   18.4251 C   0  0  0  0  0  0  0  0  0  0  0  0
    9.1576   -4.6236   15.8860 O   0  0  0  0  0  0  0  0  0  0  0  0
    9.1509   -5.9108   17.7177 C   0  0  0  0  0  0  0  0  0  0  0  0
    3.6373   -9.5349   16.0582 N   0  0  0  0  0  0  0  0  0  0  0  0
    9.9275   -4.8001   18.0438 N   0  0  0  0  0  0  0  0  0  0  0  0
    8.5908   -5.7425   16.4412 C   0  0  0  0  0  0  0  0  0  0  0  0
   10.5993   -4.8981   21.6068 C   0  0  0  0  0  0  0  0  0  0  0  0
   10.4258   -3.0106   23.0998 C   0  0  0  0  0  0  0  0  0  0  0  0
   10.2148   -3.4364   25.4200 C   0  0  0  0  0  0  0  0  0  0  0  0
    9.7853   -1.1840   24.4927 C   0  0  0  0  0  0  0  0  0  0  0  0
    5.0276   -8.5227   17.5352 C   0  0  0  0  0  0  0  0  0  0  0  0
    9.8187   -2.0895   25.5800 C   0  0  0  0  0  0  0  0  0  0  0  0
    5.6473   -8.7216   15.3158 C   0  0  0  0  0  0  0  0  0  0  0  0
   10.7581   -3.1233   19.4720 N   0  0  0  0  0  0  0  0  0  0  0  0
    9.9571   -4.0573   16.8866 C   0  0  0  0  0  0  0  0  0  0  0  0
    7.6213   -6.5618   16.0087 C   0  0  0  0  0  0  0  0  0  0  0  0
   10.8583   -2.6527   20.7222 C   0  0  0  0  0  0  0  0  0  0  0  0
   10.6412   -3.5089   21.7936 C   0  0  0  0  0  0  0  0  0  0  0  0
   10.4972   -3.8968   24.1589 C   0  0  0  0  0  0  0  0  0  0  0  0
    5.9260   -8.2736   16.5517 C   0  0  0  0  0  0  0  0  0  0  0  0
    3.8816   -9.1166   17.2493 C   0  0  0  0  0  0  0  0  0  0  0  0
   10.1297   -1.6575   23.2324 C   0  0  0  0  0  0  0  0  0  0  0  0
    9.4684   -1.6929   26.7263 F   0  0  0  0  0  0  0  0  0  0  0  0
    7.7963   -7.7906   17.9837 C   0  0  0  0  0  0  0  0  0  0  0  0
   10.5884   -3.0725   16.7902 O   0  0  0  0  0  0  0  0  0  0  0  0
   10.4323   -5.3494   20.3516 C   0  0  0  0  0  0  0  0  0  0  0  0
    7.1156   -7.5454   16.8218 C   0  0  0  0  0  0  0  0  0  0  0  0
   10.3885   -4.4388   19.2773 C   0  0  0  0  0  0  0  0  0  0  0  0
    4.5160   -9.3822   15.0841 C   0  0  0  0  0  0  0  0  0  0  0  0
  1  3  4  0
  1 24  4  0
  2  6  4  0
  2 15  4  0
  3  5  4  0
  3  6  4  0
  4 21  4  0
  4 29  4  0
  5 15  4  0
  5 28  1  0
  6 16  4  0
  7 18  4  0
  7 26  4  0
  8 18  1  0
  8 19  4  0
  8 22  4  0
  9 12  4  0
  9 19  4  0
 10 12  4  0
 10 22  4  0
 11 20  4  0
 11 21  4  0
 12 23  1  0
 13 20  4  0
 13 29  4  0
 14 17  4  0
 14 28  4  0
 15 25  2  0
 16 27  4  0
 17 18  4  0
 20 27  1  0
 24 27  4  0
 26 28  4  0
M  END
$$$$

 Created by Python create_sdf_string function

 29 33  0  0  0  0  0  0  0  0999 V2000
    8.8270   -7.0288   18.4251 C   0  0  0  0  0  0  0  0  0  0  0  0
    9.1576   -4.6236   15.8860 O   0  0  0  0  0  0  0  0  0  0  0  0
    9.1509   -5.9108   17.7177 C   0  0  0  0  0  0  0  0  0  0  0  0
    3.6373   -9.5349   16.0582 N   0  0  0  0  0  0  0  0  0  0  0  0
    9.9275   -4.8001   18.0438 N   0  0  0  0  0  0  0  0  0  0  0  0
    8.5908   -5.7425   16.4412 C   0  0  0  0  0  0  0  0  0  0  0  0
   10.5993   -4.8981   21.6068 C   0  0  0  0  0  0  0  0  0  0  0  0
   10.4258   -3.0106   23.0998 C   0  0  0  0  0  0  0  0  0  0  0  0
   10.2148   -3.4364   25.4200 C   0  0  0  0  0  0  0  0  0  0  0  0
    9.7853   -1.1840   24.4927 C   0  0  0  0  0  0  0  0  0  0  0  0
    5.0276   -8.5227   17.5352 C   0  0  0  0  0  0  0  0  0  0  0  0
    9.8187   -2.0895   25.5800 C   0  0  0  0  0  0  0  0  0  0  0  0
    5.6473   -8.7216   15.3158 C   0  0  0  0  0  0  0  0  0  0  0  0
   10.7581   -3.1233   19.4720 N   0  0  0  0  0  0  0  0  0  0  0  0
    9.9571   -4.0573   16.8866 C   0  0  0  0  0  0  0  0  0  0  0  0
    7.6213   -6.5618   16.0087 C   0  0  0  0  0  0  0  0  0  0  0  0
   10.8583   -2.6527   20.7222 C   0  0  0  0  0  0  0  0  0  0  0  0
   10.6412   -3.5089   21.7936 C   0  0  0  0  0  0  0  0  0  0  0  0
   10.4972   -3.8968   24.1589 C   0  0  0  0  0  0  0  0  0  0  0  0
    5.9260   -8.2736   16.5517 C   0  0  0  0  0  0  0  0  0  0  0  0
    3.8816   -9.1166   17.2493 C   0  0  0  0  0  0  0  0  0  0  0  0
   10.1297   -1.6575   23.2324 C   0  0  0  0  0  0  0  0  0  0  0  0
    9.4684   -1.6929   26.7263 F   0  0  0  0  0  0  0  0  0  0  0  0
    7.7963   -7.7906   17.9837 C   0  0  0  0  0  0  0  0  0  0  0  0
   10.5884   -3.0725   16.7902 O   0  0  0  0  0  0  0  0  0  0  0  0
   10.4323   -5.3494   20.3516 C   0  0  0  0  0  0  0  0  0  0  0  0
    7.1156   -7.5454   16.8218 C   0  0  0  0  0  0  0  0  0  0  0  0
   10.3885   -4.4388   19.2773 C   0  0  0  0  0  0  0  0  0  0  0  0
    4.5160   -9.3822   15.0841 C   0  0  0  0  0  0  0  0  0  0  0  0
  1  3  4  0
  1 24  4  0
  2  6  4  0
  2 15  4  0
  3  5  4  0
  3  6  4  0
  4 21  4  0
  4 29  4  0
  5 15  4  0
  5 28  1  0
  6 16  4  0
  7 18  4  0
  7 26  4  0
  8 18  1  0
  8 19  4  0
  8 22  4  0
  9 12  4  0
  9 19  4  0
 10 12  4  0
 10 22  4  0
 11 20  4  0
 11 21  4  0
 12 23  1  0
 13 20  4  0
 13 29  4  0
 14 17  4  0
 14 28  4  0
 15 25  2  0
 16 27  4  0
 17 18  4  0
 20 27  1  0
 24 27  4  0
 26 28  4  0
M  END
$$$$

 Created by Python create_sdf_string function

 29 33  0  0  0  0  0  0  0  0999 V2000
    8.8270   -7.0288   18.4251 C   0  0  0  0  0  0  0  0  0  0  0  0
    9.1576   -4.6236   15.8860 O   0  0  0  0  0  0  0  0  0  0  0  0
    9.1509   -5.9108   17.7177 C   0  0  0  0  0  0  0  0  0  0  0  0
    3.6373   -9.5349   16.0582 N   0  0  0  0  0  0  0  0  0  0  0  0
    9.9275   -4.8001   18.0438 N   0  0  0  0  0  0  0  0  0  0  0  0
    8.5908   -5.7425   16.4412 C   0  0  0  0  0  0  0  0  0  0  0  0
   10.5993   -4.8981   21.6068 C   0  0  0  0  0  0  0  0  0  0  0  0
   10.4258   -3.0106   23.0998 C   0  0  0  0  0  0  0  0  0  0  0  0
   10.2148   -3.4364   25.4200 C   0  0  0  0  0  0  0  0  0  0  0  0
    9.7853   -1.1840   24.4927 C   0  0  0  0  0  0  0  0  0  0  0  0
    5.0276   -8.5227   17.5352 C   0  0  0  0  0  0  0  0  0  0  0  0
    9.8187   -2.0895   25.5800 C   0  0  0  0  0  0  0  0  0  0  0  0
    5.6473   -8.7216   15.3158 C   0  0  0  0  0  0  0  0  0  0  0  0
   10.7581   -3.1233   19.4720 N   0  0  0  0  0  0  0  0  0  0  0  0
    9.9571   -4.0573   16.8866 C   0  0  0  0  0  0  0  0  0  0  0  0
    7.6213   -6.5618   16.0087 C   0  0  0  0  0  0  0  0  0  0  0  0
   10.8583   -2.6527   20.7222 C   0  0  0  0  0  0  0  0  0  0  0  0
   10.6412   -3.5089   21.7936 C   0  0  0  0  0  0  0  0  0  0  0  0
   10.4972   -3.8968   24.1589 C   0  0  0  0  0  0  0  0  0  0  0  0
    5.9260   -8.2736   16.5517 C   0  0  0  0  0  0  0  0  0  0  0  0
    3.8816   -9.1166   17.2493 C   0  0  0  0  0  0  0  0  0  0  0  0
   10.1297   -1.6575   23.2324 C   0  0  0  0  0  0  0  0  0  0  0  0
    9.4684   -1.6929   26.7263 F   0  0  0  0  0  0  0  0  0  0  0  0
    7.7963   -7.7906   17.9837 C   0  0  0  0  0  0  0  0  0  0  0  0
   10.5884   -3.0725   16.7902 O   0  0  0  0  0  0  0  0  0  0  0  0
   10.4323   -5.3494   20.3516 C   0  0  0  0  0  0  0  0  0  0  0  0
    7.1156   -7.5454   16.8218 C   0  0  0  0  0  0  0  0  0  0  0  0
   10.3885   -4.4388   19.2773 C   0  0  0  0  0  0  0  0  0  0  0  0
    4.5160   -9.3822   15.0841 C   0  0  0  0  0  0  0  0  0  0  0  0
  1  3  4  0
  1 24  4  0
  2  6  4  0
  2 15  4  0
  3  5  4  0
  3  6  4  0
  4 21  4  0
  4 29  4  0
  5 15  4  0
  5 28  1  0
  6 16  4  0
  7 18  4  0
  7 26  4  0
  8 18  1  0
  8 19  4  0
  8 22  4  0
  9 12  4  0
  9 19  4  0
 10 12  4  0
 10 22  4  0
 11 20  4  0
 11 21  4  0
 12 23  1  0
 13 20  4  0
 13 29  4  0
 14 17  4  0
 14 28  4  0
 15 25  2  0
 16 27  4  0
 17 18  4  0
 20 27  1  0
 24 27  4  0
 26 28  4  0
M  END
$$$$

 Created by Python create_sdf_string function

 29 33  0  0  0  0  0  0  0  0999 V2000
    8.8270   -7.0288   18.4251 C   0  0  0  0  0  0  0  0  0  0  0  0
    9.1576   -4.6236   15.8860 O   0  0  0  0  0  0  0  0  0  0  0  0
    9.1509   -5.9108   17.7177 C   0  0  0  0  0  0  0  0  0  0  0  0
    3.6373   -9.5349   16.0582 N   0  0  0  0  0  0  0  0  0  0  0  0
    9.9275   -4.8001   18.0438 N   0  0  0  0  0  0  0  0  0  0  0  0
    8.5908   -5.7425   16.4412 C   0  0  0  0  0  0  0  0  0  0  0  0
   10.5993   -4.8981   21.6068 C   0  0  0  0  0  0  0  0  0  0  0  0
   10.4258   -3.0106   23.0998 C   0  0  0  0  0  0  0  0  0  0  0  0
   10.2148   -3.4364   25.4200 C   0  0  0  0  0  0  0  0  0  0  0  0
    9.7853   -1.1840   24.4927 C   0  0  0  0  0  0  0  0  0  0  0  0
    5.0276   -8.5227   17.5352 C   0  0  0  0  0  0  0  0  0  0  0  0
    9.8187   -2.0895   25.5800 C   0  0  0  0  0  0  0  0  0  0  0  0
    5.6473   -8.7216   15.3158 C   0  0  0  0  0  0  0  0  0  0  0  0
   10.7581   -3.1233   19.4720 N   0  0  0  0  0  0  0  0  0  0  0  0
    9.9571   -4.0573   16.8866 C   0  0  0  0  0  0  0  0  0  0  0  0
    7.6213   -6.5618   16.0087 C   0  0  0  0  0  0  0  0  0  0  0  0
   10.8583   -2.6527   20.7222 C   0  0  0  0  0  0  0  0  0  0  0  0
   10.6412   -3.5089   21.7936 C   0  0  0  0  0  0  0  0  0  0  0  0
   10.4972   -3.8968   24.1589 C   0  0  0  0  0  0  0  0  0  0  0  0
    5.9260   -8.2736   16.5517 C   0  0  0  0  0  0  0  0  0  0  0  0
    3.8816   -9.1166   17.2493 C   0  0  0  0  0  0  0  0  0  0  0  0
   10.1297   -1.6575   23.2324 C   0  0  0  0  0  0  0  0  0  0  0  0
    9.4684   -1.6929   26.7263 F   0  0  0  0  0  0  0  0  0  0  0  0
    7.7963   -7.7906   17.9837 C   0  0  0  0  0  0  0  0  0  0  0  0
   10.5884   -3.0725   16.7902 O   0  0  0  0  0  0  0  0  0  0  0  0
   10.4323   -5.3494   20.3516 C   0  0  0  0  0  0  0  0  0  0  0  0
    7.1156   -7.5454   16.8218 C   0  0  0  0  0  0  0  0  0  0  0  0
   10.3885   -4.4388   19.2773 C   0  0  0  0  0  0  0  0  0  0  0  0
    4.5160   -9.3822   15.0841 C   0  0  0  0  0  0  0  0  0  0  0  0
  1  3  4  0
  1 24  4  0
  2  6  4  0
  2 15  4  0
  3  5  4  0
  3  6  4  0
  4 21  4  0
  4 29  4  0
  5 15  4  0
  5 28  1  0
  6 16  4  0
  7 18  4  0
  7 26  4  0
  8 18  1  0
  8 19  4  0
  8 22  4  0
  9 12  4  0
  9 19  4  0
 10 12  4  0
 10 22  4  0
 11 20  4  0
 11 21  4  0
 12 23  1  0
 13 20  4  0
 13 29  4  0
 14 17  4  0
 14 28  4  0
 15 25  2  0
 16 27  4  0
 17 18  4  0
 20 27  1  0
 24 27  4  0
 26 28  4  0
M  END
$$$$

 Created by Python create_sdf_string function

 29 33  0  0  0  0  0  0  0  0999 V2000
    8.8270   -7.0288   18.4251 C   0  0  0  0  0  0  0  0  0  0  0  0
    9.1576   -4.6236   15.8860 O   0  0  0  0  0  0  0  0  0  0  0  0
    9.1509   -5.9108   17.7177 C   0  0  0  0  0  0  0  0  0  0  0  0
    3.6373   -9.5349   16.0582 N   0  0  0  0  0  0  0  0  0  0  0  0
    9.9275   -4.8001   18.0438 N   0  0  0  0  0  0  0  0  0  0  0  0
    8.5908   -5.7425   16.4412 C   0  0  0  0  0  0  0  0  0  0  0  0
   10.5993   -4.8981   21.6068 C   0  0  0  0  0  0  0  0  0  0  0  0
   10.4258   -3.0106   23.0998 C   0  0  0  0  0  0  0  0  0  0  0  0
   10.2148   -3.4364   25.4200 C   0  0  0  0  0  0  0  0  0  0  0  0
    9.7853   -1.1840   24.4927 C   0  0  0  0  0  0  0  0  0  0  0  0
    5.0276   -8.5227   17.5352 C   0  0  0  0  0  0  0  0  0  0  0  0
    9.8187   -2.0895   25.5800 C   0  0  0  0  0  0  0  0  0  0  0  0
    5.6473   -8.7216   15.3158 C   0  0  0  0  0  0  0  0  0  0  0  0
   10.7581   -3.1233   19.4720 N   0  0  0  0  0  0  0  0  0  0  0  0
    9.9571   -4.0573   16.8866 C   0  0  0  0  0  0  0  0  0  0  0  0
    7.6213   -6.5618   16.0087 C   0  0  0  0  0  0  0  0  0  0  0  0
   10.8583   -2.6527   20.7222 C   0  0  0  0  0  0  0  0  0  0  0  0
   10.6412   -3.5089   21.7936 C   0  0  0  0  0  0  0  0  0  0  0  0
   10.4972   -3.8968   24.1589 C   0  0  0  0  0  0  0  0  0  0  0  0
    5.9260   -8.2736   16.5517 C   0  0  0  0  0  0  0  0  0  0  0  0
    3.8816   -9.1166   17.2493 C   0  0  0  0  0  0  0  0  0  0  0  0
   10.1297   -1.6575   23.2324 C   0  0  0  0  0  0  0  0  0  0  0  0
    9.4684   -1.6929   26.7263 F   0  0  0  0  0  0  0  0  0  0  0  0
    7.7963   -7.7906   17.9837 C   0  0  0  0  0  0  0  0  0  0  0  0
   10.5884   -3.0725   16.7902 O   0  0  0  0  0  0  0  0  0  0  0  0
   10.4323   -5.3494   20.3516 C   0  0  0  0  0  0  0  0  0  0  0  0
    7.1156   -7.5454   16.8218 C   0  0  0  0  0  0  0  0  0  0  0  0
   10.3885   -4.4388   19.2773 C   0  0  0  0  0  0  0  0  0  0  0  0
    4.5160   -9.3822   15.0841 C   0  0  0  0  0  0  0  0  0  0  0  0
  1  3  4  0
  1 24  4  0
  2  6  4  0
  2 15  4  0
  3  5  4  0
  3  6  4  0
  4 21  4  0
  4 29  4  0
  5 15  4  0
  5 28  1  0
  6 16  4  0
  7 18  4  0
  7 26  4  0
  8 18  1  0
  8 19  4  0
  8 22  4  0
  9 12  4  0
  9 19  4  0
 10 12  4  0
 10 22  4  0
 11 20  4  0
 11 21  4  0
 12 23  1  0
 13 20  4  0
 13 29  4  0
 14 17  4  0
 14 28  4  0
 15 25  2  0
 16 27  4  0
 17 18  4  0
 20 27  1  0
 24 27  4  0
 26 28  4  0
M  END
$$$$

 Created by Python create_sdf_string function

 29 33  0  0  0  0  0  0  0  0999 V2000
    8.8270   -7.0288   18.4251 C   0  0  0  0  0  0  0  0  0  0  0  0
    9.1576   -4.6236   15.8860 O   0  0  0  0  0  0  0  0  0  0  0  0
    9.1509   -5.9108   17.7177 C   0  0  0  0  0  0  0  0  0  0  0  0
    3.6373   -9.5349   16.0582 N   0  0  0  0  0  0  0  0  0  0  0  0
    9.9275   -4.8001   18.0438 N   0  0  0  0  0  0  0  0  0  0  0  0
    8.5908   -5.7425   16.4412 C   0  0  0  0  0  0  0  0  0  0  0  0
   10.5993   -4.8981   21.6068 C   0  0  0  0  0  0  0  0  0  0  0  0
   10.4258   -3.0106   23.0998 C   0  0  0  0  0  0  0  0  0  0  0  0
   10.2148   -3.4364   25.4200 C   0  0  0  0  0  0  0  0  0  0  0  0
    9.7853   -1.1840   24.4927 C   0  0  0  0  0  0  0  0  0  0  0  0
    5.0276   -8.5227   17.5352 C   0  0  0  0  0  0  0  0  0  0  0  0
    9.8187   -2.0895   25.5800 C   0  0  0  0  0  0  0  0  0  0  0  0
    5.6473   -8.7216   15.3158 C   0  0  0  0  0  0  0  0  0  0  0  0
   10.7581   -3.1233   19.4720 N   0  0  0  0  0  0  0  0  0  0  0  0
    9.9571   -4.0573   16.8866 C   0  0  0  0  0  0  0  0  0  0  0  0
    7.6213   -6.5618   16.0087 C   0  0  0  0  0  0  0  0  0  0  0  0
   10.8583   -2.6527   20.7222 C   0  0  0  0  0  0  0  0  0  0  0  0
   10.6412   -3.5089   21.7936 C   0  0  0  0  0  0  0  0  0  0  0  0
   10.4972   -3.8968   24.1589 C   0  0  0  0  0  0  0  0  0  0  0  0
    5.9260   -8.2736   16.5517 C   0  0  0  0  0  0  0  0  0  0  0  0
    3.8816   -9.1166   17.2493 C   0  0  0  0  0  0  0  0  0  0  0  0
   10.1297   -1.6575   23.2324 C   0  0  0  0  0  0  0  0  0  0  0  0
    9.4684   -1.6929   26.7263 F   0  0  0  0  0  0  0  0  0  0  0  0
    7.7963   -7.7906   17.9837 C   0  0  0  0  0  0  0  0  0  0  0  0
   10.5884   -3.0725   16.7902 O   0  0  0  0  0  0  0  0  0  0  0  0
   10.4323   -5.3494   20.3516 C   0  0  0  0  0  0  0  0  0  0  0  0
    7.1156   -7.5454   16.8218 C   0  0  0  0  0  0  0  0  0  0  0  0
   10.3885   -4.4388   19.2773 C   0  0  0  0  0  0  0  0  0  0  0  0
    4.5160   -9.3822   15.0841 C   0  0  0  0  0  0  0  0  0  0  0  0
  1  3  4  0
  1 24  4  0
  2  6  4  0
  2 15  4  0
  3  5  4  0
  3  6  4  0
  4 21  4  0
  4 29  4  0
  5 15  4  0
  5 28  1  0
  6 16  4  0
  7 18  4  0
  7 26  4  0
  8 18  1  0
  8 19  4  0
  8 22  4  0
  9 12  4  0
  9 19  4  0
 10 12  4  0
 10 22  4  0
 11 20  4  0
 11 21  4  0
 12 23  1  0
 13 20  4  0
 13 29  4  0
 14 17  4  0
 14 28  4  0
 15 25  2  0
 16 27  4  0
 17 18  4  0
 20 27  1  0
 24 27  4  0
 26 28  4  0
M  END
$$$$

 Created by Python create_sdf_string function

 29 33  0  0  0  0  0  0  0  0999 V2000
    8.8270   -7.0288   18.4251 C   0  0  0  0  0  0  0  0  0  0  0  0
    9.1576   -4.6236   15.8860 O   0  0  0  0  0  0  0  0  0  0  0  0
    9.1509   -5.9108   17.7177 C   0  0  0  0  0  0  0  0  0  0  0  0
    3.6373   -9.5349   16.0582 N   0  0  0  0  0  0  0  0  0  0  0  0
    9.9275   -4.8001   18.0438 N   0  0  0  0  0  0  0  0  0  0  0  0
    8.5908   -5.7425   16.4412 C   0  0  0  0  0  0  0  0  0  0  0  0
   10.5993   -4.8981   21.6068 C   0  0  0  0  0  0  0  0  0  0  0  0
   10.4258   -3.0106   23.0998 C   0  0  0  0  0  0  0  0  0  0  0  0
   10.2148   -3.4364   25.4200 C   0  0  0  0  0  0  0  0  0  0  0  0
    9.7853   -1.1840   24.4927 C   0  0  0  0  0  0  0  0  0  0  0  0
    5.0276   -8.5227   17.5352 C   0  0  0  0  0  0  0  0  0  0  0  0
    9.8187   -2.0895   25.5800 C   0  0  0  0  0  0  0  0  0  0  0  0
    5.6473   -8.7216   15.3158 C   0  0  0  0  0  0  0  0  0  0  0  0
   10.7581   -3.1233   19.4720 N   0  0  0  0  0  0  0  0  0  0  0  0
    9.9571   -4.0573   16.8866 C   0  0  0  0  0  0  0  0  0  0  0  0
    7.6213   -6.5618   16.0087 C   0  0  0  0  0  0  0  0  0  0  0  0
   10.8583   -2.6527   20.7222 C   0  0  0  0  0  0  0  0  0  0  0  0
   10.6412   -3.5089   21.7936 C   0  0  0  0  0  0  0  0  0  0  0  0
   10.4972   -3.8968   24.1589 C   0  0  0  0  0  0  0  0  0  0  0  0
    5.9260   -8.2736   16.5517 C   0  0  0  0  0  0  0  0  0  0  0  0
    3.8816   -9.1166   17.2493 C   0  0  0  0  0  0  0  0  0  0  0  0
   10.1297   -1.6575   23.2324 C   0  0  0  0  0  0  0  0  0  0  0  0
    9.4684   -1.6929   26.7263 F   0  0  0  0  0  0  0  0  0  0  0  0
    7.7963   -7.7906   17.9837 C   0  0  0  0  0  0  0  0  0  0  0  0
   10.5884   -3.0725   16.7902 O   0  0  0  0  0  0  0  0  0  0  0  0
   10.4323   -5.3494   20.3516 C   0  0  0  0  0  0  0  0  0  0  0  0
    7.1156   -7.5454   16.8218 C   0  0  0  0  0  0  0  0  0  0  0  0
   10.3885   -4.4388   19.2773 C   0  0  0  0  0  0  0  0  0  0  0  0
    4.5160   -9.3822   15.0841 C   0  0  0  0  0  0  0  0  0  0  0  0
  1  3  4  0
  1 24  4  0
  2  6  4  0
  2 15  4  0
  3  5  4  0
  3  6  4  0
  4 21  4  0
  4 29  4  0
  5 15  4  0
  5 28  1  0
  6 16  4  0
  7 18  4  0
  7 26  4  0
  8 18  1  0
  8 19  4  0
  8 22  4  0
  9 12  4  0
  9 19  4  0
 10 12  4  0
 10 22  4  0
 11 20  4  0
 11 21  4  0
 12 23  1  0
 13 20  4  0
 13 29  4  0
 14 17  4  0
 14 28  4  0
 15 25  2  0
 16 27  4  0
 17 18  4  0
 20 27  1  0
 24 27  4  0
 26 28  4  0
M  END
$$$$

 Created by Python create_sdf_string function

 29 33  0  0  0  0  0  0  0  0999 V2000
    8.8270   -7.0288   18.4251 C   0  0  0  0  0  0  0  0  0  0  0  0
    9.1576   -4.6236   15.8860 O   0  0  0  0  0  0  0  0  0  0  0  0
    9.1509   -5.9108   17.7177 C   0  0  0  0  0  0  0  0  0  0  0  0
    3.6373   -9.5349   16.0582 N   0  0  0  0  0  0  0  0  0  0  0  0
    9.9275   -4.8001   18.0438 N   0  0  0  0  0  0  0  0  0  0  0  0
    8.5908   -5.7425   16.4412 C   0  0  0  0  0  0  0  0  0  0  0  0
   10.5993   -4.8981   21.6068 C   0  0  0  0  0  0  0  0  0  0  0  0
   10.4258   -3.0106   23.0998 C   0  0  0  0  0  0  0  0  0  0  0  0
   10.2148   -3.4364   25.4200 C   0  0  0  0  0  0  0  0  0  0  0  0
    9.7853   -1.1840   24.4927 C   0  0  0  0  0  0  0  0  0  0  0  0
    5.0276   -8.5227   17.5352 C   0  0  0  0  0  0  0  0  0  0  0  0
    9.8187   -2.0895   25.5800 C   0  0  0  0  0  0  0  0  0  0  0  0
    5.6473   -8.7216   15.3158 C   0  0  0  0  0  0  0  0  0  0  0  0
   10.7581   -3.1233   19.4720 N   0  0  0  0  0  0  0  0  0  0  0  0
    9.9571   -4.0573   16.8866 C   0  0  0  0  0  0  0  0  0  0  0  0
    7.6213   -6.5618   16.0087 C   0  0  0  0  0  0  0  0  0  0  0  0
   10.8583   -2.6527   20.7222 C   0  0  0  0  0  0  0  0  0  0  0  0
   10.6412   -3.5089   21.7936 C   0  0  0  0  0  0  0  0  0  0  0  0
   10.4972   -3.8968   24.1589 C   0  0  0  0  0  0  0  0  0  0  0  0
    5.9260   -8.2736   16.5517 C   0  0  0  0  0  0  0  0  0  0  0  0
    3.8816   -9.1166   17.2493 C   0  0  0  0  0  0  0  0  0  0  0  0
   10.1297   -1.6575   23.2324 C   0  0  0  0  0  0  0  0  0  0  0  0
    9.4684   -1.6929   26.7263 F   0  0  0  0  0  0  0  0  0  0  0  0
    7.7963   -7.7906   17.9837 C   0  0  0  0  0  0  0  0  0  0  0  0
   10.5884   -3.0725   16.7902 O   0  0  0  0  0  0  0  0  0  0  0  0
   10.4323   -5.3494   20.3516 C   0  0  0  0  0  0  0  0  0  0  0  0
    7.1156   -7.5454   16.8218 C   0  0  0  0  0  0  0  0  0  0  0  0
   10.3885   -4.4388   19.2773 C   0  0  0  0  0  0  0  0  0  0  0  0
    4.5160   -9.3822   15.0841 C   0  0  0  0  0  0  0  0  0  0  0  0
  1  3  4  0
  1 24  4  0
  2  6  4  0
  2 15  4  0
  3  5  4  0
  3  6  4  0
  4 21  4  0
  4 29  4  0
  5 15  4  0
  5 28  1  0
  6 16  4  0
  7 18  4  0
  7 26  4  0
  8 18  1  0
  8 19  4  0
  8 22  4  0
  9 12  4  0
  9 19  4  0
 10 12  4  0
 10 22  4  0
 11 20  4  0
 11 21  4  0
 12 23  1  0
 13 20  4  0
 13 29  4  0
 14 17  4  0
 14 28  4  0
 15 25  2  0
 16 27  4  0
 17 18  4  0
 20 27  1  0
 24 27  4  0
 26 28  4  0
M  END
$$$$

 Created by Python create_sdf_string function

 29 33  0  0  0  0  0  0  0  0999 V2000
    8.8270   -7.0288   18.4251 C   0  0  0  0  0  0  0  0  0  0  0  0
    9.1576   -4.6236   15.8860 O   0  0  0  0  0  0  0  0  0  0  0  0
    9.1509   -5.9108   17.7177 C   0  0  0  0  0  0  0  0  0  0  0  0
    3.6373   -9.5349   16.0582 N   0  0  0  0  0  0  0  0  0  0  0  0
    9.9275   -4.8001   18.0438 N   0  0  0  0  0  0  0  0  0  0  0  0
    8.5908   -5.7425   16.4412 C   0  0  0  0  0  0  0  0  0  0  0  0
   10.5993   -4.8981   21.6068 C   0  0  0  0  0  0  0  0  0  0  0  0
   10.4258   -3.0106   23.0998 C   0  0  0  0  0  0  0  0  0  0  0  0
   10.2148   -3.4364   25.4200 C   0  0  0  0  0  0  0  0  0  0  0  0
    9.7853   -1.1840   24.4927 C   0  0  0  0  0  0  0  0  0  0  0  0
    5.0276   -8.5227   17.5352 C   0  0  0  0  0  0  0  0  0  0  0  0
    9.8187   -2.0895   25.5800 C   0  0  0  0  0  0  0  0  0  0  0  0
    5.6473   -8.7216   15.3158 C   0  0  0  0  0  0  0  0  0  0  0  0
   10.7581   -3.1233   19.4720 N   0  0  0  0  0  0  0  0  0  0  0  0
    9.9571   -4.0573   16.8866 C   0  0  0  0  0  0  0  0  0  0  0  0
    7.6213   -6.5618   16.0087 C   0  0  0  0  0  0  0  0  0  0  0  0
   10.8583   -2.6527   20.7222 C   0  0  0  0  0  0  0  0  0  0  0  0
   10.6412   -3.5089   21.7936 C   0  0  0  0  0  0  0  0  0  0  0  0
   10.4972   -3.8968   24.1589 C   0  0  0  0  0  0  0  0  0  0  0  0
    5.9260   -8.2736   16.5517 C   0  0  0  0  0  0  0  0  0  0  0  0
    3.8816   -9.1166   17.2493 C   0  0  0  0  0  0  0  0  0  0  0  0
   10.1297   -1.6575   23.2324 C   0  0  0  0  0  0  0  0  0  0  0  0
    9.4684   -1.6929   26.7263 F   0  0  0  0  0  0  0  0  0  0  0  0
    7.7963   -7.7906   17.9837 C   0  0  0  0  0  0  0  0  0  0  0  0
   10.5884   -3.0725   16.7902 O   0  0  0  0  0  0  0  0  0  0  0  0
   10.4323   -5.3494   20.3516 C   0  0  0  0  0  0  0  0  0  0  0  0
    7.1156   -7.5454   16.8218 C   0  0  0  0  0  0  0  0  0  0  0  0
   10.3885   -4.4388   19.2773 C   0  0  0  0  0  0  0  0  0  0  0  0
    4.5160   -9.3822   15.0841 C   0  0  0  0  0  0  0  0  0  0  0  0
  1  3  4  0
  1 24  4  0
  2  6  4  0
  2 15  4  0
  3  5  4  0
  3  6  4  0
  4 21  4  0
  4 29  4  0
  5 15  4  0
  5 28  1  0
  6 16  4  0
  7 18  4  0
  7 26  4  0
  8 18  1  0
  8 19  4  0
  8 22  4  0
  9 12  4  0
  9 19  4  0
 10 12  4  0
 10 22  4  0
 11 20  4  0
 11 21  4  0
 12 23  1  0
 13 20  4  0
 13 29  4  0
 14 17  4  0
 14 28  4  0
 15 25  2  0
 16 27  4  0
 17 18  4  0
 20 27  1  0
 24 27  4  0
 26 28  4  0
M  END
$$$$

 Created by Python create_sdf_string function

 29 33  0  0  0  0  0  0  0  0999 V2000
    8.8270   -7.0288   18.4251 C   0  0  0  0  0  0  0  0  0  0  0  0
    9.1576   -4.6236   15.8860 O   0  0  0  0  0  0  0  0  0  0  0  0
    9.1509   -5.9108   17.7177 C   0  0  0  0  0  0  0  0  0  0  0  0
    3.6373   -9.5349   16.0582 N   0  0  0  0  0  0  0  0  0  0  0  0
    9.9275   -4.8001   18.0438 N   0  0  0  0  0  0  0  0  0  0  0  0
    8.5908   -5.7425   16.4412 C   0  0  0  0  0  0  0  0  0  0  0  0
   10.5993   -4.8981   21.6068 C   0  0  0  0  0  0  0  0  0  0  0  0
   10.4258   -3.0106   23.0998 C   0  0  0  0  0  0  0  0  0  0  0  0
   10.2148   -3.4364   25.4200 C   0  0  0  0  0  0  0  0  0  0  0  0
    9.7853   -1.1840   24.4927 C   0  0  0  0  0  0  0  0  0  0  0  0
    5.0276   -8.5227   17.5352 C   0  0  0  0  0  0  0  0  0  0  0  0
    9.8187   -2.0895   25.5800 C   0  0  0  0  0  0  0  0  0  0  0  0
    5.6473   -8.7216   15.3158 C   0  0  0  0  0  0  0  0  0  0  0  0
   10.7581   -3.1233   19.4720 N   0  0  0  0  0  0  0  0  0  0  0  0
    9.9571   -4.0573   16.8866 C   0  0  0  0  0  0  0  0  0  0  0  0
    7.6213   -6.5618   16.0087 C   0  0  0  0  0  0  0  0  0  0  0  0
   10.8583   -2.6527   20.7222 C   0  0  0  0  0  0  0  0  0  0  0  0
   10.6412   -3.5089   21.7936 C   0  0  0  0  0  0  0  0  0  0  0  0
   10.4972   -3.8968   24.1589 C   0  0  0  0  0  0  0  0  0  0  0  0
    5.9260   -8.2736   16.5517 C   0  0  0  0  0  0  0  0  0  0  0  0
    3.8816   -9.1166   17.2493 C   0  0  0  0  0  0  0  0  0  0  0  0
   10.1297   -1.6575   23.2324 C   0  0  0  0  0  0  0  0  0  0  0  0
    9.4684   -1.6929   26.7263 F   0  0  0  0  0  0  0  0  0  0  0  0
    7.7963   -7.7906   17.9837 C   0  0  0  0  0  0  0  0  0  0  0  0
   10.5884   -3.0725   16.7902 O   0  0  0  0  0  0  0  0  0  0  0  0
   10.4323   -5.3494   20.3516 C   0  0  0  0  0  0  0  0  0  0  0  0
    7.1156   -7.5454   16.8218 C   0  0  0  0  0  0  0  0  0  0  0  0
   10.3885   -4.4388   19.2773 C   0  0  0  0  0  0  0  0  0  0  0  0
    4.5160   -9.3822   15.0841 C   0  0  0  0  0  0  0  0  0  0  0  0
  1  3  4  0
  1 24  4  0
  2  6  4  0
  2 15  4  0
  3  5  4  0
  3  6  4  0
  4 21  4  0
  4 29  4  0
  5 15  4  0
  5 28  1  0
  6 16  4  0
  7 18  4  0
  7 26  4  0
  8 18  1  0
  8 19  4  0
  8 22  4  0
  9 12  4  0
  9 19  4  0
 10 12  4  0
 10 22  4  0
 11 20  4  0
 11 21  4  0
 12 23  1  0
 13 20  4  0
 13 29  4  0
 14 17  4  0
 14 28  4  0
 15 25  2  0
 16 27  4  0
 17 18  4  0
 20 27  1  0
 24 27  4  0
 26 28  4  0
M  END
$$$$

 Created by Python create_sdf_string function

 29 33  0  0  0  0  0  0  0  0999 V2000
    8.8270   -7.0288   18.4251 C   0  0  0  0  0  0  0  0  0  0  0  0
    9.1576   -4.6236   15.8860 O   0  0  0  0  0  0  0  0  0  0  0  0
    9.1509   -5.9108   17.7177 C   0  0  0  0  0  0  0  0  0  0  0  0
    3.6373   -9.5349   16.0582 N   0  0  0  0  0  0  0  0  0  0  0  0
    9.9275   -4.8001   18.0438 N   0  0  0  0  0  0  0  0  0  0  0  0
    8.5908   -5.7425   16.4412 C   0  0  0  0  0  0  0  0  0  0  0  0
   10.5993   -4.8981   21.6068 C   0  0  0  0  0  0  0  0  0  0  0  0
   10.4258   -3.0106   23.0998 C   0  0  0  0  0  0  0  0  0  0  0  0
   10.2148   -3.4364   25.4200 C   0  0  0  0  0  0  0  0  0  0  0  0
    9.7853   -1.1840   24.4927 C   0  0  0  0  0  0  0  0  0  0  0  0
    5.0276   -8.5227   17.5352 C   0  0  0  0  0  0  0  0  0  0  0  0
    9.8187   -2.0895   25.5800 C   0  0  0  0  0  0  0  0  0  0  0  0
    5.6473   -8.7216   15.3158 C   0  0  0  0  0  0  0  0  0  0  0  0
   10.7581   -3.1233   19.4720 N   0  0  0  0  0  0  0  0  0  0  0  0
    9.9571   -4.0573   16.8866 C   0  0  0  0  0  0  0  0  0  0  0  0
    7.6213   -6.5618   16.0087 C   0  0  0  0  0  0  0  0  0  0  0  0
   10.8583   -2.6527   20.7222 C   0  0  0  0  0  0  0  0  0  0  0  0
   10.6412   -3.5089   21.7936 C   0  0  0  0  0  0  0  0  0  0  0  0
   10.4972   -3.8968   24.1589 C   0  0  0  0  0  0  0  0  0  0  0  0
    5.9260   -8.2736   16.5517 C   0  0  0  0  0  0  0  0  0  0  0  0
    3.8816   -9.1166   17.2493 C   0  0  0  0  0  0  0  0  0  0  0  0
   10.1297   -1.6575   23.2324 C   0  0  0  0  0  0  0  0  0  0  0  0
    9.4684   -1.6929   26.7263 F   0  0  0  0  0  0  0  0  0  0  0  0
    7.7963   -7.7906   17.9837 C   0  0  0  0  0  0  0  0  0  0  0  0
   10.5884   -3.0725   16.7902 O   0  0  0  0  0  0  0  0  0  0  0  0
   10.4323   -5.3494   20.3516 C   0  0  0  0  0  0  0  0  0  0  0  0
    7.1156   -7.5454   16.8218 C   0  0  0  0  0  0  0  0  0  0  0  0
   10.3885   -4.4388   19.2773 C   0  0  0  0  0  0  0  0  0  0  0  0
    4.5160   -9.3822   15.0841 C   0  0  0  0  0  0  0  0  0  0  0  0
  1  3  4  0
  1 24  4  0
  2  6  4  0
  2 15  4  0
  3  5  4  0
  3  6  4  0
  4 21  4  0
  4 29  4  0
  5 15  4  0
  5 28  1  0
  6 16  4  0
  7 18  4  0
  7 26  4  0
  8 18  1  0
  8 19  4  0
  8 22  4  0
  9 12  4  0
  9 19  4  0
 10 12  4  0
 10 22  4  0
 11 20  4  0
 11 21  4  0
 12 23  1  0
 13 20  4  0
 13 29  4  0
 14 17  4  0
 14 28  4  0
 15 25  2  0
 16 27  4  0
 17 18  4  0
 20 27  1  0
 24 27  4  0
 26 28  4  0
M  END
$$$$

 Created by Python create_sdf_string function

 29 33  0  0  0  0  0  0  0  0999 V2000
    8.8270   -7.0288   18.4251 C   0  0  0  0  0  0  0  0  0  0  0  0
    9.1576   -4.6236   15.8860 O   0  0  0  0  0  0  0  0  0  0  0  0
    9.1509   -5.9108   17.7177 C   0  0  0  0  0  0  0  0  0  0  0  0
    3.6373   -9.5349   16.0582 N   0  0  0  0  0  0  0  0  0  0  0  0
    9.9275   -4.8001   18.0438 N   0  0  0  0  0  0  0  0  0  0  0  0
    8.5908   -5.7425   16.4412 C   0  0  0  0  0  0  0  0  0  0  0  0
   10.5993   -4.8981   21.6068 C   0  0  0  0  0  0  0  0  0  0  0  0
   10.4258   -3.0106   23.0998 C   0  0  0  0  0  0  0  0  0  0  0  0
   10.2148   -3.4364   25.4200 C   0  0  0  0  0  0  0  0  0  0  0  0
    9.7853   -1.1840   24.4927 C   0  0  0  0  0  0  0  0  0  0  0  0
    5.0276   -8.5227   17.5352 C   0  0  0  0  0  0  0  0  0  0  0  0
    9.8187   -2.0895   25.5800 C   0  0  0  0  0  0  0  0  0  0  0  0
    5.6473   -8.7216   15.3158 C   0  0  0  0  0  0  0  0  0  0  0  0
   10.7581   -3.1233   19.4720 N   0  0  0  0  0  0  0  0  0  0  0  0
    9.9571   -4.0573   16.8866 C   0  0  0  0  0  0  0  0  0  0  0  0
    7.6213   -6.5618   16.0087 C   0  0  0  0  0  0  0  0  0  0  0  0
   10.8583   -2.6527   20.7222 C   0  0  0  0  0  0  0  0  0  0  0  0
   10.6412   -3.5089   21.7936 C   0  0  0  0  0  0  0  0  0  0  0  0
   10.4972   -3.8968   24.1589 C   0  0  0  0  0  0  0  0  0  0  0  0
    5.9260   -8.2736   16.5517 C   0  0  0  0  0  0  0  0  0  0  0  0
    3.8816   -9.1166   17.2493 C   0  0  0  0  0  0  0  0  0  0  0  0
   10.1297   -1.6575   23.2324 C   0  0  0  0  0  0  0  0  0  0  0  0
    9.4684   -1.6929   26.7263 F   0  0  0  0  0  0  0  0  0  0  0  0
    7.7963   -7.7906   17.9837 C   0  0  0  0  0  0  0  0  0  0  0  0
   10.5884   -3.0725   16.7902 O   0  0  0  0  0  0  0  0  0  0  0  0
   10.4323   -5.3494   20.3516 C   0  0  0  0  0  0  0  0  0  0  0  0
    7.1156   -7.5454   16.8218 C   0  0  0  0  0  0  0  0  0  0  0  0
   10.3885   -4.4388   19.2773 C   0  0  0  0  0  0  0  0  0  0  0  0
    4.5160   -9.3822   15.0841 C   0  0  0  0  0  0  0  0  0  0  0  0
  1  3  4  0
  1 24  4  0
  2  6  4  0
  2 15  4  0
  3  5  4  0
  3  6  4  0
  4 21  4  0
  4 29  4  0
  5 15  4  0
  5 28  1  0
  6 16  4  0
  7 18  4  0
  7 26  4  0
  8 18  1  0
  8 19  4  0
  8 22  4  0
  9 12  4  0
  9 19  4  0
 10 12  4  0
 10 22  4  0
 11 20  4  0
 11 21  4  0
 12 23  1  0
 13 20  4  0
 13 29  4  0
 14 17  4  0
 14 28  4  0
 15 25  2  0
 16 27  4  0
 17 18  4  0
 20 27  1  0
 24 27  4  0
 26 28  4  0
M  END
$$$$

 Created by Python create_sdf_string function

 29 33  0  0  0  0  0  0  0  0999 V2000
    8.8270   -7.0288   18.4251 C   0  0  0  0  0  0  0  0  0  0  0  0
    9.1576   -4.6236   15.8860 O   0  0  0  0  0  0  0  0  0  0  0  0
    9.1509   -5.9108   17.7177 C   0  0  0  0  0  0  0  0  0  0  0  0
    3.6373   -9.5349   16.0582 N   0  0  0  0  0  0  0  0  0  0  0  0
    9.9275   -4.8001   18.0438 N   0  0  0  0  0  0  0  0  0  0  0  0
    8.5908   -5.7425   16.4412 C   0  0  0  0  0  0  0  0  0  0  0  0
   10.5993   -4.8981   21.6068 C   0  0  0  0  0  0  0  0  0  0  0  0
   10.4258   -3.0106   23.0998 C   0  0  0  0  0  0  0  0  0  0  0  0
   10.2148   -3.4364   25.4200 C   0  0  0  0  0  0  0  0  0  0  0  0
    9.7853   -1.1840   24.4927 C   0  0  0  0  0  0  0  0  0  0  0  0
    5.0276   -8.5227   17.5352 C   0  0  0  0  0  0  0  0  0  0  0  0
    9.8187   -2.0895   25.5800 C   0  0  0  0  0  0  0  0  0  0  0  0
    5.6473   -8.7216   15.3158 C   0  0  0  0  0  0  0  0  0  0  0  0
   10.7581   -3.1233   19.4720 N   0  0  0  0  0  0  0  0  0  0  0  0
    9.9571   -4.0573   16.8866 C   0  0  0  0  0  0  0  0  0  0  0  0
    7.6213   -6.5618   16.0087 C   0  0  0  0  0  0  0  0  0  0  0  0
   10.8583   -2.6527   20.7222 C   0  0  0  0  0  0  0  0  0  0  0  0
   10.6412   -3.5089   21.7936 C   0  0  0  0  0  0  0  0  0  0  0  0
   10.4972   -3.8968   24.1589 C   0  0  0  0  0  0  0  0  0  0  0  0
    5.9260   -8.2736   16.5517 C   0  0  0  0  0  0  0  0  0  0  0  0
    3.8816   -9.1166   17.2493 C   0  0  0  0  0  0  0  0  0  0  0  0
   10.1297   -1.6575   23.2324 C   0  0  0  0  0  0  0  0  0  0  0  0
    9.4684   -1.6929   26.7263 F   0  0  0  0  0  0  0  0  0  0  0  0
    7.7963   -7.7906   17.9837 C   0  0  0  0  0  0  0  0  0  0  0  0
   10.5884   -3.0725   16.7902 O   0  0  0  0  0  0  0  0  0  0  0  0
   10.4323   -5.3494   20.3516 C   0  0  0  0  0  0  0  0  0  0  0  0
    7.1156   -7.5454   16.8218 C   0  0  0  0  0  0  0  0  0  0  0  0
   10.3885   -4.4388   19.2773 C   0  0  0  0  0  0  0  0  0  0  0  0
    4.5160   -9.3822   15.0841 C   0  0  0  0  0  0  0  0  0  0  0  0
  1  3  4  0
  1 24  4  0
  2  6  4  0
  2 15  4  0
  3  5  4  0
  3  6  4  0
  4 21  4  0
  4 29  4  0
  5 15  4  0
  5 28  1  0
  6 16  4  0
  7 18  4  0
  7 26  4  0
  8 18  1  0
  8 19  4  0
  8 22  4  0
  9 12  4  0
  9 19  4  0
 10 12  4  0
 10 22  4  0
 11 20  4  0
 11 21  4  0
 12 23  1  0
 13 20  4  0
 13 29  4  0
 14 17  4  0
 14 28  4  0
 15 25  2  0
 16 27  4  0
 17 18  4  0
 20 27  1  0
 24 27  4  0
 26 28  4  0
M  END
$$$$

 Created by Python create_sdf_string function

 29 33  0  0  0  0  0  0  0  0999 V2000
    8.8270   -7.0288   18.4251 C   0  0  0  0  0  0  0  0  0  0  0  0
    9.1576   -4.6236   15.8860 O   0  0  0  0  0  0  0  0  0  0  0  0
    9.1509   -5.9108   17.7177 C   0  0  0  0  0  0  0  0  0  0  0  0
    3.6373   -9.5349   16.0582 N   0  0  0  0  0  0  0  0  0  0  0  0
    9.9275   -4.8001   18.0438 N   0  0  0  0  0  0  0  0  0  0  0  0
    8.5908   -5.7425   16.4412 C   0  0  0  0  0  0  0  0  0  0  0  0
   10.5993   -4.8981   21.6068 C   0  0  0  0  0  0  0  0  0  0  0  0
   10.4258   -3.0106   23.0998 C   0  0  0  0  0  0  0  0  0  0  0  0
   10.2148   -3.4364   25.4200 C   0  0  0  0  0  0  0  0  0  0  0  0
    9.7853   -1.1840   24.4927 C   0  0  0  0  0  0  0  0  0  0  0  0
    5.0276   -8.5227   17.5352 C   0  0  0  0  0  0  0  0  0  0  0  0
    9.8187   -2.0895   25.5800 C   0  0  0  0  0  0  0  0  0  0  0  0
    5.6473   -8.7216   15.3158 C   0  0  0  0  0  0  0  0  0  0  0  0
   10.7581   -3.1233   19.4720 N   0  0  0  0  0  0  0  0  0  0  0  0
    9.9571   -4.0573   16.8866 C   0  0  0  0  0  0  0  0  0  0  0  0
    7.6213   -6.5618   16.0087 C   0  0  0  0  0  0  0  0  0  0  0  0
   10.8583   -2.6527   20.7222 C   0  0  0  0  0  0  0  0  0  0  0  0
   10.6412   -3.5089   21.7936 C   0  0  0  0  0  0  0  0  0  0  0  0
   10.4972   -3.8968   24.1589 C   0  0  0  0  0  0  0  0  0  0  0  0
    5.9260   -8.2736   16.5517 C   0  0  0  0  0  0  0  0  0  0  0  0
    3.8816   -9.1166   17.2493 C   0  0  0  0  0  0  0  0  0  0  0  0
   10.1297   -1.6575   23.2324 C   0  0  0  0  0  0  0  0  0  0  0  0
    9.4684   -1.6929   26.7263 F   0  0  0  0  0  0  0  0  0  0  0  0
    7.7963   -7.7906   17.9837 C   0  0  0  0  0  0  0  0  0  0  0  0
   10.5884   -3.0725   16.7902 O   0  0  0  0  0  0  0  0  0  0  0  0
   10.4323   -5.3494   20.3516 C   0  0  0  0  0  0  0  0  0  0  0  0
    7.1156   -7.5454   16.8218 C   0  0  0  0  0  0  0  0  0  0  0  0
   10.3885   -4.4388   19.2773 C   0  0  0  0  0  0  0  0  0  0  0  0
    4.5160   -9.3822   15.0841 C   0  0  0  0  0  0  0  0  0  0  0  0
  1  3  4  0
  1 24  4  0
  2  6  4  0
  2 15  4  0
  3  5  4  0
  3  6  4  0
  4 21  4  0
  4 29  4  0
  5 15  4  0
  5 28  1  0
  6 16  4  0
  7 18  4  0
  7 26  4  0
  8 18  1  0
  8 19  4  0
  8 22  4  0
  9 12  4  0
  9 19  4  0
 10 12  4  0
 10 22  4  0
 11 20  4  0
 11 21  4  0
 12 23  1  0
 13 20  4  0
 13 29  4  0
 14 17  4  0
 14 28  4  0
 15 25  2  0
 16 27  4  0
 17 18  4  0
 20 27  1  0
 24 27  4  0
 26 28  4  0
M  END
$$$$

 Created by Python create_sdf_string function

 29 33  0  0  0  0  0  0  0  0999 V2000
    8.8270   -7.0288   18.4251 C   0  0  0  0  0  0  0  0  0  0  0  0
    9.1576   -4.6236   15.8860 O   0  0  0  0  0  0  0  0  0  0  0  0
    9.1509   -5.9108   17.7177 C   0  0  0  0  0  0  0  0  0  0  0  0
    3.6373   -9.5349   16.0582 N   0  0  0  0  0  0  0  0  0  0  0  0
    9.9275   -4.8001   18.0438 N   0  0  0  0  0  0  0  0  0  0  0  0
    8.5908   -5.7425   16.4412 C   0  0  0  0  0  0  0  0  0  0  0  0
   10.5993   -4.8981   21.6068 C   0  0  0  0  0  0  0  0  0  0  0  0
   10.4258   -3.0106   23.0998 C   0  0  0  0  0  0  0  0  0  0  0  0
   10.2148   -3.4364   25.4200 C   0  0  0  0  0  0  0  0  0  0  0  0
    9.7853   -1.1840   24.4927 C   0  0  0  0  0  0  0  0  0  0  0  0
    5.0276   -8.5227   17.5352 C   0  0  0  0  0  0  0  0  0  0  0  0
    9.8187   -2.0895   25.5800 C   0  0  0  0  0  0  0  0  0  0  0  0
    5.6473   -8.7216   15.3158 C   0  0  0  0  0  0  0  0  0  0  0  0
   10.7581   -3.1233   19.4720 N   0  0  0  0  0  0  0  0  0  0  0  0
    9.9571   -4.0573   16.8866 C   0  0  0  0  0  0  0  0  0  0  0  0
    7.6213   -6.5618   16.0087 C   0  0  0  0  0  0  0  0  0  0  0  0
   10.8583   -2.6527   20.7222 C   0  0  0  0  0  0  0  0  0  0  0  0
   10.6412   -3.5089   21.7936 C   0  0  0  0  0  0  0  0  0  0  0  0
   10.4972   -3.8968   24.1589 C   0  0  0  0  0  0  0  0  0  0  0  0
    5.9260   -8.2736   16.5517 C   0  0  0  0  0  0  0  0  0  0  0  0
    3.8816   -9.1166   17.2493 C   0  0  0  0  0  0  0  0  0  0  0  0
   10.1297   -1.6575   23.2324 C   0  0  0  0  0  0  0  0  0  0  0  0
    9.4684   -1.6929   26.7263 F   0  0  0  0  0  0  0  0  0  0  0  0
    7.7963   -7.7906   17.9837 C   0  0  0  0  0  0  0  0  0  0  0  0
   10.5884   -3.0725   16.7902 O   0  0  0  0  0  0  0  0  0  0  0  0
   10.4323   -5.3494   20.3516 C   0  0  0  0  0  0  0  0  0  0  0  0
    7.1156   -7.5454   16.8218 C   0  0  0  0  0  0  0  0  0  0  0  0
   10.3885   -4.4388   19.2773 C   0  0  0  0  0  0  0  0  0  0  0  0
    4.5160   -9.3822   15.0841 C   0  0  0  0  0  0  0  0  0  0  0  0
  1  3  4  0
  1 24  4  0
  2  6  4  0
  2 15  4  0
  3  5  4  0
  3  6  4  0
  4 21  4  0
  4 29  4  0
  5 15  4  0
  5 28  1  0
  6 16  4  0
  7 18  4  0
  7 26  4  0
  8 18  1  0
  8 19  4  0
  8 22  4  0
  9 12  4  0
  9 19  4  0
 10 12  4  0
 10 22  4  0
 11 20  4  0
 11 21  4  0
 12 23  1  0
 13 20  4  0
 13 29  4  0
 14 17  4  0
 14 28  4  0
 15 25  2  0
 16 27  4  0
 17 18  4  0
 20 27  1  0
 24 27  4  0
 26 28  4  0
M  END
$$$$

 Created by Python create_sdf_string function

 29 33  0  0  0  0  0  0  0  0999 V2000
    8.8270   -7.0288   18.4251 C   0  0  0  0  0  0  0  0  0  0  0  0
    9.1576   -4.6236   15.8860 O   0  0  0  0  0  0  0  0  0  0  0  0
    9.1509   -5.9108   17.7177 C   0  0  0  0  0  0  0  0  0  0  0  0
    3.6373   -9.5349   16.0582 N   0  0  0  0  0  0  0  0  0  0  0  0
    9.9275   -4.8001   18.0438 N   0  0  0  0  0  0  0  0  0  0  0  0
    8.5908   -5.7425   16.4412 C   0  0  0  0  0  0  0  0  0  0  0  0
   10.5993   -4.8981   21.6068 C   0  0  0  0  0  0  0  0  0  0  0  0
   10.4258   -3.0106   23.0998 C   0  0  0  0  0  0  0  0  0  0  0  0
   10.2148   -3.4364   25.4200 C   0  0  0  0  0  0  0  0  0  0  0  0
    9.7853   -1.1840   24.4927 C   0  0  0  0  0  0  0  0  0  0  0  0
    5.0276   -8.5227   17.5352 C   0  0  0  0  0  0  0  0  0  0  0  0
    9.8187   -2.0895   25.5800 C   0  0  0  0  0  0  0  0  0  0  0  0
    5.6473   -8.7216   15.3158 C   0  0  0  0  0  0  0  0  0  0  0  0
   10.7581   -3.1233   19.4720 N   0  0  0  0  0  0  0  0  0  0  0  0
    9.9571   -4.0573   16.8866 C   0  0  0  0  0  0  0  0  0  0  0  0
    7.6213   -6.5618   16.0087 C   0  0  0  0  0  0  0  0  0  0  0  0
   10.8583   -2.6527   20.7222 C   0  0  0  0  0  0  0  0  0  0  0  0
   10.6412   -3.5089   21.7936 C   0  0  0  0  0  0  0  0  0  0  0  0
   10.4972   -3.8968   24.1589 C   0  0  0  0  0  0  0  0  0  0  0  0
    5.9260   -8.2736   16.5517 C   0  0  0  0  0  0  0  0  0  0  0  0
    3.8816   -9.1166   17.2493 C   0  0  0  0  0  0  0  0  0  0  0  0
   10.1297   -1.6575   23.2324 C   0  0  0  0  0  0  0  0  0  0  0  0
    9.4684   -1.6929   26.7263 F   0  0  0  0  0  0  0  0  0  0  0  0
    7.7963   -7.7906   17.9837 C   0  0  0  0  0  0  0  0  0  0  0  0
   10.5884   -3.0725   16.7902 O   0  0  0  0  0  0  0  0  0  0  0  0
   10.4323   -5.3494   20.3516 C   0  0  0  0  0  0  0  0  0  0  0  0
    7.1156   -7.5454   16.8218 C   0  0  0  0  0  0  0  0  0  0  0  0
   10.3885   -4.4388   19.2773 C   0  0  0  0  0  0  0  0  0  0  0  0
    4.5160   -9.3822   15.0841 C   0  0  0  0  0  0  0  0  0  0  0  0
  1  3  4  0
  1 24  4  0
  2  6  4  0
  2 15  4  0
  3  5  4  0
  3  6  4  0
  4 21  4  0
  4 29  4  0
  5 15  4  0
  5 28  1  0
  6 16  4  0
  7 18  4  0
  7 26  4  0
  8 18  1  0
  8 19  4  0
  8 22  4  0
  9 12  4  0
  9 19  4  0
 10 12  4  0
 10 22  4  0
 11 20  4  0
 11 21  4  0
 12 23  1  0
 13 20  4  0
 13 29  4  0
 14 17  4  0
 14 28  4  0
 15 25  2  0
 16 27  4  0
 17 18  4  0
 20 27  1  0
 24 27  4  0
 26 28  4  0
M  END
$$$$

 Created by Python create_sdf_string function

 29 33  0  0  0  0  0  0  0  0999 V2000
    8.8270   -7.0288   18.4251 C   0  0  0  0  0  0  0  0  0  0  0  0
    9.1576   -4.6236   15.8860 O   0  0  0  0  0  0  0  0  0  0  0  0
    9.1509   -5.9108   17.7177 C   0  0  0  0  0  0  0  0  0  0  0  0
    3.6373   -9.5349   16.0582 N   0  0  0  0  0  0  0  0  0  0  0  0
    9.9275   -4.8001   18.0438 N   0  0  0  0  0  0  0  0  0  0  0  0
    8.5908   -5.7425   16.4412 C   0  0  0  0  0  0  0  0  0  0  0  0
   10.5993   -4.8981   21.6068 C   0  0  0  0  0  0  0  0  0  0  0  0
   10.4258   -3.0106   23.0998 C   0  0  0  0  0  0  0  0  0  0  0  0
   10.2148   -3.4364   25.4200 C   0  0  0  0  0  0  0  0  0  0  0  0
    9.7853   -1.1840   24.4927 C   0  0  0  0  0  0  0  0  0  0  0  0
    5.0276   -8.5227   17.5352 C   0  0  0  0  0  0  0  0  0  0  0  0
    9.8187   -2.0895   25.5800 C   0  0  0  0  0  0  0  0  0  0  0  0
    5.6473   -8.7216   15.3158 C   0  0  0  0  0  0  0  0  0  0  0  0
   10.7581   -3.1233   19.4720 N   0  0  0  0  0  0  0  0  0  0  0  0
    9.9571   -4.0573   16.8866 C   0  0  0  0  0  0  0  0  0  0  0  0
    7.6213   -6.5618   16.0087 C   0  0  0  0  0  0  0  0  0  0  0  0
   10.8583   -2.6527   20.7222 C   0  0  0  0  0  0  0  0  0  0  0  0
   10.6412   -3.5089   21.7936 C   0  0  0  0  0  0  0  0  0  0  0  0
   10.4972   -3.8968   24.1589 C   0  0  0  0  0  0  0  0  0  0  0  0
    5.9260   -8.2736   16.5517 C   0  0  0  0  0  0  0  0  0  0  0  0
    3.8816   -9.1166   17.2493 C   0  0  0  0  0  0  0  0  0  0  0  0
   10.1297   -1.6575   23.2324 C   0  0  0  0  0  0  0  0  0  0  0  0
    9.4684   -1.6929   26.7263 F   0  0  0  0  0  0  0  0  0  0  0  0
    7.7963   -7.7906   17.9837 C   0  0  0  0  0  0  0  0  0  0  0  0
   10.5884   -3.0725   16.7902 O   0  0  0  0  0  0  0  0  0  0  0  0
   10.4323   -5.3494   20.3516 C   0  0  0  0  0  0  0  0  0  0  0  0
    7.1156   -7.5454   16.8218 C   0  0  0  0  0  0  0  0  0  0  0  0
   10.3885   -4.4388   19.2773 C   0  0  0  0  0  0  0  0  0  0  0  0
    4.5160   -9.3822   15.0841 C   0  0  0  0  0  0  0  0  0  0  0  0
  1  3  4  0
  1 24  4  0
  2  6  4  0
  2 15  4  0
  3  5  4  0
  3  6  4  0
  4 21  4  0
  4 29  4  0
  5 15  4  0
  5 28  1  0
  6 16  4  0
  7 18  4  0
  7 26  4  0
  8 18  1  0
  8 19  4  0
  8 22  4  0
  9 12  4  0
  9 19  4  0
 10 12  4  0
 10 22  4  0
 11 20  4  0
 11 21  4  0
 12 23  1  0
 13 20  4  0
 13 29  4  0
 14 17  4  0
 14 28  4  0
 15 25  2  0
 16 27  4  0
 17 18  4  0
 20 27  1  0
 24 27  4  0
 26 28  4  0
M  END
$$$$

 Created by Python create_sdf_string function

 29 33  0  0  0  0  0  0  0  0999 V2000
    8.8270   -7.0288   18.4251 C   0  0  0  0  0  0  0  0  0  0  0  0
    9.1576   -4.6236   15.8860 O   0  0  0  0  0  0  0  0  0  0  0  0
    9.1509   -5.9108   17.7177 C   0  0  0  0  0  0  0  0  0  0  0  0
    3.6373   -9.5349   16.0582 N   0  0  0  0  0  0  0  0  0  0  0  0
    9.9275   -4.8001   18.0438 N   0  0  0  0  0  0  0  0  0  0  0  0
    8.5908   -5.7425   16.4412 C   0  0  0  0  0  0  0  0  0  0  0  0
   10.5993   -4.8981   21.6068 C   0  0  0  0  0  0  0  0  0  0  0  0
   10.4258   -3.0106   23.0998 C   0  0  0  0  0  0  0  0  0  0  0  0
   10.2148   -3.4364   25.4200 C   0  0  0  0  0  0  0  0  0  0  0  0
    9.7853   -1.1840   24.4927 C   0  0  0  0  0  0  0  0  0  0  0  0
    5.0276   -8.5227   17.5352 C   0  0  0  0  0  0  0  0  0  0  0  0
    9.8187   -2.0895   25.5800 C   0  0  0  0  0  0  0  0  0  0  0  0
    5.6473   -8.7216   15.3158 C   0  0  0  0  0  0  0  0  0  0  0  0
   10.7581   -3.1233   19.4720 N   0  0  0  0  0  0  0  0  0  0  0  0
    9.9571   -4.0573   16.8866 C   0  0  0  0  0  0  0  0  0  0  0  0
    7.6213   -6.5618   16.0087 C   0  0  0  0  0  0  0  0  0  0  0  0
   10.8583   -2.6527   20.7222 C   0  0  0  0  0  0  0  0  0  0  0  0
   10.6412   -3.5089   21.7936 C   0  0  0  0  0  0  0  0  0  0  0  0
   10.4972   -3.8968   24.1589 C   0  0  0  0  0  0  0  0  0  0  0  0
    5.9260   -8.2736   16.5517 C   0  0  0  0  0  0  0  0  0  0  0  0
    3.8816   -9.1166   17.2493 C   0  0  0  0  0  0  0  0  0  0  0  0
   10.1297   -1.6575   23.2324 C   0  0  0  0  0  0  0  0  0  0  0  0
    9.4684   -1.6929   26.7263 F   0  0  0  0  0  0  0  0  0  0  0  0
    7.7963   -7.7906   17.9837 C   0  0  0  0  0  0  0  0  0  0  0  0
   10.5884   -3.0725   16.7902 O   0  0  0  0  0  0  0  0  0  0  0  0
   10.4323   -5.3494   20.3516 C   0  0  0  0  0  0  0  0  0  0  0  0
    7.1156   -7.5454   16.8218 C   0  0  0  0  0  0  0  0  0  0  0  0
   10.3885   -4.4388   19.2773 C   0  0  0  0  0  0  0  0  0  0  0  0
    4.5160   -9.3822   15.0841 C   0  0  0  0  0  0  0  0  0  0  0  0
  1  3  4  0
  1 24  4  0
  2  6  4  0
  2 15  4  0
  3  5  4  0
  3  6  4  0
  4 21  4  0
  4 29  4  0
  5 15  4  0
  5 28  1  0
  6 16  4  0
  7 18  4  0
  7 26  4  0
  8 18  1  0
  8 19  4  0
  8 22  4  0
  9 12  4  0
  9 19  4  0
 10 12  4  0
 10 22  4  0
 11 20  4  0
 11 21  4  0
 12 23  1  0
 13 20  4  0
 13 29  4  0
 14 17  4  0
 14 28  4  0
 15 25  2  0
 16 27  4  0
 17 18  4  0
 20 27  1  0
 24 27  4  0
 26 28  4  0
M  END
$$$$

 Created by Python create_sdf_string function

 29 33  0  0  0  0  0  0  0  0999 V2000
    8.8270   -7.0288   18.4251 C   0  0  0  0  0  0  0  0  0  0  0  0
    9.1576   -4.6236   15.8860 O   0  0  0  0  0  0  0  0  0  0  0  0
    9.1509   -5.9108   17.7177 C   0  0  0  0  0  0  0  0  0  0  0  0
    3.6373   -9.5349   16.0582 N   0  0  0  0  0  0  0  0  0  0  0  0
    9.9275   -4.8001   18.0438 N   0  0  0  0  0  0  0  0  0  0  0  0
    8.5908   -5.7425   16.4412 C   0  0  0  0  0  0  0  0  0  0  0  0
   10.5993   -4.8981   21.6068 C   0  0  0  0  0  0  0  0  0  0  0  0
   10.4258   -3.0106   23.0998 C   0  0  0  0  0  0  0  0  0  0  0  0
   10.2148   -3.4364   25.4200 C   0  0  0  0  0  0  0  0  0  0  0  0
    9.7853   -1.1840   24.4927 C   0  0  0  0  0  0  0  0  0  0  0  0
    5.0276   -8.5227   17.5352 C   0  0  0  0  0  0  0  0  0  0  0  0
    9.8187   -2.0895   25.5800 C   0  0  0  0  0  0  0  0  0  0  0  0
    5.6473   -8.7216   15.3158 C   0  0  0  0  0  0  0  0  0  0  0  0
   10.7581   -3.1233   19.4720 N   0  0  0  0  0  0  0  0  0  0  0  0
    9.9571   -4.0573   16.8866 C   0  0  0  0  0  0  0  0  0  0  0  0
    7.6213   -6.5618   16.0087 C   0  0  0  0  0  0  0  0  0  0  0  0
   10.8583   -2.6527   20.7222 C   0  0  0  0  0  0  0  0  0  0  0  0
   10.6412   -3.5089   21.7936 C   0  0  0  0  0  0  0  0  0  0  0  0
   10.4972   -3.8968   24.1589 C   0  0  0  0  0  0  0  0  0  0  0  0
    5.9260   -8.2736   16.5517 C   0  0  0  0  0  0  0  0  0  0  0  0
    3.8816   -9.1166   17.2493 C   0  0  0  0  0  0  0  0  0  0  0  0
   10.1297   -1.6575   23.2324 C   0  0  0  0  0  0  0  0  0  0  0  0
    9.4684   -1.6929   26.7263 F   0  0  0  0  0  0  0  0  0  0  0  0
    7.7963   -7.7906   17.9837 C   0  0  0  0  0  0  0  0  0  0  0  0
   10.5884   -3.0725   16.7902 O   0  0  0  0  0  0  0  0  0  0  0  0
   10.4323   -5.3494   20.3516 C   0  0  0  0  0  0  0  0  0  0  0  0
    7.1156   -7.5454   16.8218 C   0  0  0  0  0  0  0  0  0  0  0  0
   10.3885   -4.4388   19.2773 C   0  0  0  0  0  0  0  0  0  0  0  0
    4.5160   -9.3822   15.0841 C   0  0  0  0  0  0  0  0  0  0  0  0
  1  3  4  0
  1 24  4  0
  2  6  4  0
  2 15  4  0
  3  5  4  0
  3  6  4  0
  4 21  4  0
  4 29  4  0
  5 15  4  0
  5 28  1  0
  6 16  4  0
  7 18  4  0
  7 26  4  0
  8 18  1  0
  8 19  4  0
  8 22  4  0
  9 12  4  0
  9 19  4  0
 10 12  4  0
 10 22  4  0
 11 20  4  0
 11 21  4  0
 12 23  1  0
 13 20  4  0
 13 29  4  0
 14 17  4  0
 14 28  4  0
 15 25  2  0
 16 27  4  0
 17 18  4  0
 20 27  1  0
 24 27  4  0
 26 28  4  0
M  END
$$$$

 Created by Python create_sdf_string function

 29 33  0  0  0  0  0  0  0  0999 V2000
    8.8270   -7.0288   18.4251 C   0  0  0  0  0  0  0  0  0  0  0  0
    9.1576   -4.6236   15.8860 O   0  0  0  0  0  0  0  0  0  0  0  0
    9.1509   -5.9108   17.7177 C   0  0  0  0  0  0  0  0  0  0  0  0
    3.6373   -9.5349   16.0582 N   0  0  0  0  0  0  0  0  0  0  0  0
    9.9275   -4.8001   18.0438 N   0  0  0  0  0  0  0  0  0  0  0  0
    8.5908   -5.7425   16.4412 C   0  0  0  0  0  0  0  0  0  0  0  0
   10.5993   -4.8981   21.6068 C   0  0  0  0  0  0  0  0  0  0  0  0
   10.4258   -3.0106   23.0998 C   0  0  0  0  0  0  0  0  0  0  0  0
   10.2148   -3.4364   25.4200 C   0  0  0  0  0  0  0  0  0  0  0  0
    9.7853   -1.1840   24.4927 C   0  0  0  0  0  0  0  0  0  0  0  0
    5.0276   -8.5227   17.5352 C   0  0  0  0  0  0  0  0  0  0  0  0
    9.8187   -2.0895   25.5800 C   0  0  0  0  0  0  0  0  0  0  0  0
    5.6473   -8.7216   15.3158 C   0  0  0  0  0  0  0  0  0  0  0  0
   10.7581   -3.1233   19.4720 N   0  0  0  0  0  0  0  0  0  0  0  0
    9.9571   -4.0573   16.8866 C   0  0  0  0  0  0  0  0  0  0  0  0
    7.6213   -6.5618   16.0087 C   0  0  0  0  0  0  0  0  0  0  0  0
   10.8583   -2.6527   20.7222 C   0  0  0  0  0  0  0  0  0  0  0  0
   10.6412   -3.5089   21.7936 C   0  0  0  0  0  0  0  0  0  0  0  0
   10.4972   -3.8968   24.1589 C   0  0  0  0  0  0  0  0  0  0  0  0
    5.9260   -8.2736   16.5517 C   0  0  0  0  0  0  0  0  0  0  0  0
    3.8816   -9.1166   17.2493 C   0  0  0  0  0  0  0  0  0  0  0  0
   10.1297   -1.6575   23.2324 C   0  0  0  0  0  0  0  0  0  0  0  0
    9.4684   -1.6929   26.7263 F   0  0  0  0  0  0  0  0  0  0  0  0
    7.7963   -7.7906   17.9837 C   0  0  0  0  0  0  0  0  0  0  0  0
   10.5884   -3.0725   16.7902 O   0  0  0  0  0  0  0  0  0  0  0  0
   10.4323   -5.3494   20.3516 C   0  0  0  0  0  0  0  0  0  0  0  0
    7.1156   -7.5454   16.8218 C   0  0  0  0  0  0  0  0  0  0  0  0
   10.3885   -4.4388   19.2773 C   0  0  0  0  0  0  0  0  0  0  0  0
    4.5160   -9.3822   15.0841 C   0  0  0  0  0  0  0  0  0  0  0  0
  1  3  4  0
  1 24  4  0
  2  6  4  0
  2 15  4  0
  3  5  4  0
  3  6  4  0
  4 21  4  0
  4 29  4  0
  5 15  4  0
  5 28  1  0
  6 16  4  0
  7 18  4  0
  7 26  4  0
  8 18  1  0
  8 19  4  0
  8 22  4  0
  9 12  4  0
  9 19  4  0
 10 12  4  0
 10 22  4  0
 11 20  4  0
 11 21  4  0
 12 23  1  0
 13 20  4  0
 13 29  4  0
 14 17  4  0
 14 28  4  0
 15 25  2  0
 16 27  4  0
 17 18  4  0
 20 27  1  0
 24 27  4  0
 26 28  4  0
M  END
$$$$

 Created by Python create_sdf_string function

 29 33  0  0  0  0  0  0  0  0999 V2000
    8.8270   -7.0288   18.4251 C   0  0  0  0  0  0  0  0  0  0  0  0
    9.1576   -4.6236   15.8860 O   0  0  0  0  0  0  0  0  0  0  0  0
    9.1509   -5.9108   17.7177 C   0  0  0  0  0  0  0  0  0  0  0  0
    3.6373   -9.5349   16.0582 N   0  0  0  0  0  0  0  0  0  0  0  0
    9.9275   -4.8001   18.0438 N   0  0  0  0  0  0  0  0  0  0  0  0
    8.5908   -5.7425   16.4412 C   0  0  0  0  0  0  0  0  0  0  0  0
   10.5993   -4.8981   21.6068 C   0  0  0  0  0  0  0  0  0  0  0  0
   10.4258   -3.0106   23.0998 C   0  0  0  0  0  0  0  0  0  0  0  0
   10.2148   -3.4364   25.4200 C   0  0  0  0  0  0  0  0  0  0  0  0
    9.7853   -1.1840   24.4927 C   0  0  0  0  0  0  0  0  0  0  0  0
    5.0276   -8.5227   17.5352 C   0  0  0  0  0  0  0  0  0  0  0  0
    9.8187   -2.0895   25.5800 C   0  0  0  0  0  0  0  0  0  0  0  0
    5.6473   -8.7216   15.3158 C   0  0  0  0  0  0  0  0  0  0  0  0
   10.7581   -3.1233   19.4720 N   0  0  0  0  0  0  0  0  0  0  0  0
    9.9571   -4.0573   16.8866 C   0  0  0  0  0  0  0  0  0  0  0  0
    7.6213   -6.5618   16.0087 C   0  0  0  0  0  0  0  0  0  0  0  0
   10.8583   -2.6527   20.7222 C   0  0  0  0  0  0  0  0  0  0  0  0
   10.6412   -3.5089   21.7936 C   0  0  0  0  0  0  0  0  0  0  0  0
   10.4972   -3.8968   24.1589 C   0  0  0  0  0  0  0  0  0  0  0  0
    5.9260   -8.2736   16.5517 C   0  0  0  0  0  0  0  0  0  0  0  0
    3.8816   -9.1166   17.2493 C   0  0  0  0  0  0  0  0  0  0  0  0
   10.1297   -1.6575   23.2324 C   0  0  0  0  0  0  0  0  0  0  0  0
    9.4684   -1.6929   26.7263 F   0  0  0  0  0  0  0  0  0  0  0  0
    7.7963   -7.7906   17.9837 C   0  0  0  0  0  0  0  0  0  0  0  0
   10.5884   -3.0725   16.7902 O   0  0  0  0  0  0  0  0  0  0  0  0
   10.4323   -5.3494   20.3516 C   0  0  0  0  0  0  0  0  0  0  0  0
    7.1156   -7.5454   16.8218 C   0  0  0  0  0  0  0  0  0  0  0  0
   10.3885   -4.4388   19.2773 C   0  0  0  0  0  0  0  0  0  0  0  0
    4.5160   -9.3822   15.0841 C   0  0  0  0  0  0  0  0  0  0  0  0
  1  3  4  0
  1 24  4  0
  2  6  4  0
  2 15  4  0
  3  5  4  0
  3  6  4  0
  4 21  4  0
  4 29  4  0
  5 15  4  0
  5 28  1  0
  6 16  4  0
  7 18  4  0
  7 26  4  0
  8 18  1  0
  8 19  4  0
  8 22  4  0
  9 12  4  0
  9 19  4  0
 10 12  4  0
 10 22  4  0
 11 20  4  0
 11 21  4  0
 12 23  1  0
 13 20  4  0
 13 29  4  0
 14 17  4  0
 14 28  4  0
 15 25  2  0
 16 27  4  0
 17 18  4  0
 20 27  1  0
 24 27  4  0
 26 28  4  0
M  END
$$$$

 Created by Python create_sdf_string function

 29 33  0  0  0  0  0  0  0  0999 V2000
    8.8270   -7.0288   18.4251 C   0  0  0  0  0  0  0  0  0  0  0  0
    9.1576   -4.6236   15.8860 O   0  0  0  0  0  0  0  0  0  0  0  0
    9.1509   -5.9108   17.7177 C   0  0  0  0  0  0  0  0  0  0  0  0
    3.6373   -9.5349   16.0582 N   0  0  0  0  0  0  0  0  0  0  0  0
    9.9275   -4.8001   18.0438 N   0  0  0  0  0  0  0  0  0  0  0  0
    8.5908   -5.7425   16.4412 C   0  0  0  0  0  0  0  0  0  0  0  0
   10.5993   -4.8981   21.6068 C   0  0  0  0  0  0  0  0  0  0  0  0
   10.4258   -3.0106   23.0998 C   0  0  0  0  0  0  0  0  0  0  0  0
   10.2148   -3.4364   25.4200 C   0  0  0  0  0  0  0  0  0  0  0  0
    9.7853   -1.1840   24.4927 C   0  0  0  0  0  0  0  0  0  0  0  0
    5.0276   -8.5227   17.5352 C   0  0  0  0  0  0  0  0  0  0  0  0
    9.8187   -2.0895   25.5800 C   0  0  0  0  0  0  0  0  0  0  0  0
    5.6473   -8.7216   15.3158 C   0  0  0  0  0  0  0  0  0  0  0  0
   10.7581   -3.1233   19.4720 N   0  0  0  0  0  0  0  0  0  0  0  0
    9.9571   -4.0573   16.8866 C   0  0  0  0  0  0  0  0  0  0  0  0
    7.6213   -6.5618   16.0087 C   0  0  0  0  0  0  0  0  0  0  0  0
   10.8583   -2.6527   20.7222 C   0  0  0  0  0  0  0  0  0  0  0  0
   10.6412   -3.5089   21.7936 C   0  0  0  0  0  0  0  0  0  0  0  0
   10.4972   -3.8968   24.1589 C   0  0  0  0  0  0  0  0  0  0  0  0
    5.9260   -8.2736   16.5517 C   0  0  0  0  0  0  0  0  0  0  0  0
    3.8816   -9.1166   17.2493 C   0  0  0  0  0  0  0  0  0  0  0  0
   10.1297   -1.6575   23.2324 C   0  0  0  0  0  0  0  0  0  0  0  0
    9.4684   -1.6929   26.7263 F   0  0  0  0  0  0  0  0  0  0  0  0
    7.7963   -7.7906   17.9837 C   0  0  0  0  0  0  0  0  0  0  0  0
   10.5884   -3.0725   16.7902 O   0  0  0  0  0  0  0  0  0  0  0  0
   10.4323   -5.3494   20.3516 C   0  0  0  0  0  0  0  0  0  0  0  0
    7.1156   -7.5454   16.8218 C   0  0  0  0  0  0  0  0  0  0  0  0
   10.3885   -4.4388   19.2773 C   0  0  0  0  0  0  0  0  0  0  0  0
    4.5160   -9.3822   15.0841 C   0  0  0  0  0  0  0  0  0  0  0  0
  1  3  4  0
  1 24  4  0
  2  6  4  0
  2 15  4  0
  3  5  4  0
  3  6  4  0
  4 21  4  0
  4 29  4  0
  5 15  4  0
  5 28  1  0
  6 16  4  0
  7 18  4  0
  7 26  4  0
  8 18  1  0
  8 19  4  0
  8 22  4  0
  9 12  4  0
  9 19  4  0
 10 12  4  0
 10 22  4  0
 11 20  4  0
 11 21  4  0
 12 23  1  0
 13 20  4  0
 13 29  4  0
 14 17  4  0
 14 28  4  0
 15 25  2  0
 16 27  4  0
 17 18  4  0
 20 27  1  0
 24 27  4  0
 26 28  4  0
M  END
$$$$

 Created by Python create_sdf_string function

 29 33  0  0  0  0  0  0  0  0999 V2000
    8.8270   -7.0288   18.4251 C   0  0  0  0  0  0  0  0  0  0  0  0
    9.1576   -4.6236   15.8860 O   0  0  0  0  0  0  0  0  0  0  0  0
    9.1509   -5.9108   17.7177 C   0  0  0  0  0  0  0  0  0  0  0  0
    3.6373   -9.5349   16.0582 N   0  0  0  0  0  0  0  0  0  0  0  0
    9.9275   -4.8001   18.0438 N   0  0  0  0  0  0  0  0  0  0  0  0
    8.5908   -5.7425   16.4412 C   0  0  0  0  0  0  0  0  0  0  0  0
   10.5993   -4.8981   21.6068 C   0  0  0  0  0  0  0  0  0  0  0  0
   10.4258   -3.0106   23.0998 C   0  0  0  0  0  0  0  0  0  0  0  0
   10.2148   -3.4364   25.4200 C   0  0  0  0  0  0  0  0  0  0  0  0
    9.7853   -1.1840   24.4927 C   0  0  0  0  0  0  0  0  0  0  0  0
    5.0276   -8.5227   17.5352 C   0  0  0  0  0  0  0  0  0  0  0  0
    9.8187   -2.0895   25.5800 C   0  0  0  0  0  0  0  0  0  0  0  0
    5.6473   -8.7216   15.3158 C   0  0  0  0  0  0  0  0  0  0  0  0
   10.7581   -3.1233   19.4720 N   0  0  0  0  0  0  0  0  0  0  0  0
    9.9571   -4.0573   16.8866 C   0  0  0  0  0  0  0  0  0  0  0  0
    7.6213   -6.5618   16.0087 C   0  0  0  0  0  0  0  0  0  0  0  0
   10.8583   -2.6527   20.7222 C   0  0  0  0  0  0  0  0  0  0  0  0
   10.6412   -3.5089   21.7936 C   0  0  0  0  0  0  0  0  0  0  0  0
   10.4972   -3.8968   24.1589 C   0  0  0  0  0  0  0  0  0  0  0  0
    5.9260   -8.2736   16.5517 C   0  0  0  0  0  0  0  0  0  0  0  0
    3.8816   -9.1166   17.2493 C   0  0  0  0  0  0  0  0  0  0  0  0
   10.1297   -1.6575   23.2324 C   0  0  0  0  0  0  0  0  0  0  0  0
    9.4684   -1.6929   26.7263 F   0  0  0  0  0  0  0  0  0  0  0  0
    7.7963   -7.7906   17.9837 C   0  0  0  0  0  0  0  0  0  0  0  0
   10.5884   -3.0725   16.7902 O   0  0  0  0  0  0  0  0  0  0  0  0
   10.4323   -5.3494   20.3516 C   0  0  0  0  0  0  0  0  0  0  0  0
    7.1156   -7.5454   16.8218 C   0  0  0  0  0  0  0  0  0  0  0  0
   10.3885   -4.4388   19.2773 C   0  0  0  0  0  0  0  0  0  0  0  0
    4.5160   -9.3822   15.0841 C   0  0  0  0  0  0  0  0  0  0  0  0
  1  3  4  0
  1 24  4  0
  2  6  4  0
  2 15  4  0
  3  5  4  0
  3  6  4  0
  4 21  4  0
  4 29  4  0
  5 15  4  0
  5 28  1  0
  6 16  4  0
  7 18  4  0
  7 26  4  0
  8 18  1  0
  8 19  4  0
  8 22  4  0
  9 12  4  0
  9 19  4  0
 10 12  4  0
 10 22  4  0
 11 20  4  0
 11 21  4  0
 12 23  1  0
 13 20  4  0
 13 29  4  0
 14 17  4  0
 14 28  4  0
 15 25  2  0
 16 27  4  0
 17 18  4  0
 20 27  1  0
 24 27  4  0
 26 28  4  0
M  END
$$$$

 Created by Python create_sdf_string function

 29 33  0  0  0  0  0  0  0  0999 V2000
    8.8270   -7.0288   18.4251 C   0  0  0  0  0  0  0  0  0  0  0  0
    9.1576   -4.6236   15.8860 O   0  0  0  0  0  0  0  0  0  0  0  0
    9.1509   -5.9108   17.7177 C   0  0  0  0  0  0  0  0  0  0  0  0
    3.6373   -9.5349   16.0582 N   0  0  0  0  0  0  0  0  0  0  0  0
    9.9275   -4.8001   18.0438 N   0  0  0  0  0  0  0  0  0  0  0  0
    8.5908   -5.7425   16.4412 C   0  0  0  0  0  0  0  0  0  0  0  0
   10.5993   -4.8981   21.6068 C   0  0  0  0  0  0  0  0  0  0  0  0
   10.4258   -3.0106   23.0998 C   0  0  0  0  0  0  0  0  0  0  0  0
   10.2148   -3.4364   25.4200 C   0  0  0  0  0  0  0  0  0  0  0  0
    9.7853   -1.1840   24.4927 C   0  0  0  0  0  0  0  0  0  0  0  0
    5.0276   -8.5227   17.5352 C   0  0  0  0  0  0  0  0  0  0  0  0
    9.8187   -2.0895   25.5800 C   0  0  0  0  0  0  0  0  0  0  0  0
    5.6473   -8.7216   15.3158 C   0  0  0  0  0  0  0  0  0  0  0  0
   10.7581   -3.1233   19.4720 N   0  0  0  0  0  0  0  0  0  0  0  0
    9.9571   -4.0573   16.8866 C   0  0  0  0  0  0  0  0  0  0  0  0
    7.6213   -6.5618   16.0087 C   0  0  0  0  0  0  0  0  0  0  0  0
   10.8583   -2.6527   20.7222 C   0  0  0  0  0  0  0  0  0  0  0  0
   10.6412   -3.5089   21.7936 C   0  0  0  0  0  0  0  0  0  0  0  0
   10.4972   -3.8968   24.1589 C   0  0  0  0  0  0  0  0  0  0  0  0
    5.9260   -8.2736   16.5517 C   0  0  0  0  0  0  0  0  0  0  0  0
    3.8816   -9.1166   17.2493 C   0  0  0  0  0  0  0  0  0  0  0  0
   10.1297   -1.6575   23.2324 C   0  0  0  0  0  0  0  0  0  0  0  0
    9.4684   -1.6929   26.7263 F   0  0  0  0  0  0  0  0  0  0  0  0
    7.7963   -7.7906   17.9837 C   0  0  0  0  0  0  0  0  0  0  0  0
   10.5884   -3.0725   16.7902 O   0  0  0  0  0  0  0  0  0  0  0  0
   10.4323   -5.3494   20.3516 C   0  0  0  0  0  0  0  0  0  0  0  0
    7.1156   -7.5454   16.8218 C   0  0  0  0  0  0  0  0  0  0  0  0
   10.3885   -4.4388   19.2773 C   0  0  0  0  0  0  0  0  0  0  0  0
    4.5160   -9.3822   15.0841 C   0  0  0  0  0  0  0  0  0  0  0  0
  1  3  4  0
  1 24  4  0
  2  6  4  0
  2 15  4  0
  3  5  4  0
  3  6  4  0
  4 21  4  0
  4 29  4  0
  5 15  4  0
  5 28  1  0
  6 16  4  0
  7 18  4  0
  7 26  4  0
  8 18  1  0
  8 19  4  0
  8 22  4  0
  9 12  4  0
  9 19  4  0
 10 12  4  0
 10 22  4  0
 11 20  4  0
 11 21  4  0
 12 23  1  0
 13 20  4  0
 13 29  4  0
 14 17  4  0
 14 28  4  0
 15 25  2  0
 16 27  4  0
 17 18  4  0
 20 27  1  0
 24 27  4  0
 26 28  4  0
M  END
$$$$

 Created by Python create_sdf_string function

 29 33  0  0  0  0  0  0  0  0999 V2000
    8.8270   -7.0288   18.4251 C   0  0  0  0  0  0  0  0  0  0  0  0
    9.1576   -4.6236   15.8860 O   0  0  0  0  0  0  0  0  0  0  0  0
    9.1509   -5.9108   17.7177 C   0  0  0  0  0  0  0  0  0  0  0  0
    3.6373   -9.5349   16.0582 N   0  0  0  0  0  0  0  0  0  0  0  0
    9.9275   -4.8001   18.0438 N   0  0  0  0  0  0  0  0  0  0  0  0
    8.5908   -5.7425   16.4412 C   0  0  0  0  0  0  0  0  0  0  0  0
   10.5993   -4.8981   21.6068 C   0  0  0  0  0  0  0  0  0  0  0  0
   10.4258   -3.0106   23.0998 C   0  0  0  0  0  0  0  0  0  0  0  0
   10.2148   -3.4364   25.4200 C   0  0  0  0  0  0  0  0  0  0  0  0
    9.7853   -1.1840   24.4927 C   0  0  0  0  0  0  0  0  0  0  0  0
    5.0276   -8.5227   17.5352 C   0  0  0  0  0  0  0  0  0  0  0  0
    9.8187   -2.0895   25.5800 C   0  0  0  0  0  0  0  0  0  0  0  0
    5.6473   -8.7216   15.3158 C   0  0  0  0  0  0  0  0  0  0  0  0
   10.7581   -3.1233   19.4720 N   0  0  0  0  0  0  0  0  0  0  0  0
    9.9571   -4.0573   16.8866 C   0  0  0  0  0  0  0  0  0  0  0  0
    7.6213   -6.5618   16.0087 C   0  0  0  0  0  0  0  0  0  0  0  0
   10.8583   -2.6527   20.7222 C   0  0  0  0  0  0  0  0  0  0  0  0
   10.6412   -3.5089   21.7936 C   0  0  0  0  0  0  0  0  0  0  0  0
   10.4972   -3.8968   24.1589 C   0  0  0  0  0  0  0  0  0  0  0  0
    5.9260   -8.2736   16.5517 C   0  0  0  0  0  0  0  0  0  0  0  0
    3.8816   -9.1166   17.2493 C   0  0  0  0  0  0  0  0  0  0  0  0
   10.1297   -1.6575   23.2324 C   0  0  0  0  0  0  0  0  0  0  0  0
    9.4684   -1.6929   26.7263 F   0  0  0  0  0  0  0  0  0  0  0  0
    7.7963   -7.7906   17.9837 C   0  0  0  0  0  0  0  0  0  0  0  0
   10.5884   -3.0725   16.7902 O   0  0  0  0  0  0  0  0  0  0  0  0
   10.4323   -5.3494   20.3516 C   0  0  0  0  0  0  0  0  0  0  0  0
    7.1156   -7.5454   16.8218 C   0  0  0  0  0  0  0  0  0  0  0  0
   10.3885   -4.4388   19.2773 C   0  0  0  0  0  0  0  0  0  0  0  0
    4.5160   -9.3822   15.0841 C   0  0  0  0  0  0  0  0  0  0  0  0
  1  3  4  0
  1 24  4  0
  2  6  4  0
  2 15  4  0
  3  5  4  0
  3  6  4  0
  4 21  4  0
  4 29  4  0
  5 15  4  0
  5 28  1  0
  6 16  4  0
  7 18  4  0
  7 26  4  0
  8 18  1  0
  8 19  4  0
  8 22  4  0
  9 12  4  0
  9 19  4  0
 10 12  4  0
 10 22  4  0
 11 20  4  0
 11 21  4  0
 12 23  1  0
 13 20  4  0
 13 29  4  0
 14 17  4  0
 14 28  4  0
 15 25  2  0
 16 27  4  0
 17 18  4  0
 20 27  1  0
 24 27  4  0
 26 28  4  0
M  END
$$$$

 Created by Python create_sdf_string function

 29 33  0  0  0  0  0  0  0  0999 V2000
    8.8270   -7.0288   18.4251 C   0  0  0  0  0  0  0  0  0  0  0  0
    9.1576   -4.6236   15.8860 O   0  0  0  0  0  0  0  0  0  0  0  0
    9.1509   -5.9108   17.7177 C   0  0  0  0  0  0  0  0  0  0  0  0
    3.6373   -9.5349   16.0582 N   0  0  0  0  0  0  0  0  0  0  0  0
    9.9275   -4.8001   18.0438 N   0  0  0  0  0  0  0  0  0  0  0  0
    8.5908   -5.7425   16.4412 C   0  0  0  0  0  0  0  0  0  0  0  0
   10.5993   -4.8981   21.6068 C   0  0  0  0  0  0  0  0  0  0  0  0
   10.4258   -3.0106   23.0998 C   0  0  0  0  0  0  0  0  0  0  0  0
   10.2148   -3.4364   25.4200 C   0  0  0  0  0  0  0  0  0  0  0  0
    9.7853   -1.1840   24.4927 C   0  0  0  0  0  0  0  0  0  0  0  0
    5.0276   -8.5227   17.5352 C   0  0  0  0  0  0  0  0  0  0  0  0
    9.8187   -2.0895   25.5800 C   0  0  0  0  0  0  0  0  0  0  0  0
    5.6473   -8.7216   15.3158 C   0  0  0  0  0  0  0  0  0  0  0  0
   10.7581   -3.1233   19.4720 N   0  0  0  0  0  0  0  0  0  0  0  0
    9.9571   -4.0573   16.8866 C   0  0  0  0  0  0  0  0  0  0  0  0
    7.6213   -6.5618   16.0087 C   0  0  0  0  0  0  0  0  0  0  0  0
   10.8583   -2.6527   20.7222 C   0  0  0  0  0  0  0  0  0  0  0  0
   10.6412   -3.5089   21.7936 C   0  0  0  0  0  0  0  0  0  0  0  0
   10.4972   -3.8968   24.1589 C   0  0  0  0  0  0  0  0  0  0  0  0
    5.9260   -8.2736   16.5517 C   0  0  0  0  0  0  0  0  0  0  0  0
    3.8816   -9.1166   17.2493 C   0  0  0  0  0  0  0  0  0  0  0  0
   10.1297   -1.6575   23.2324 C   0  0  0  0  0  0  0  0  0  0  0  0
    9.4684   -1.6929   26.7263 F   0  0  0  0  0  0  0  0  0  0  0  0
    7.7963   -7.7906   17.9837 C   0  0  0  0  0  0  0  0  0  0  0  0
   10.5884   -3.0725   16.7902 O   0  0  0  0  0  0  0  0  0  0  0  0
   10.4323   -5.3494   20.3516 C   0  0  0  0  0  0  0  0  0  0  0  0
    7.1156   -7.5454   16.8218 C   0  0  0  0  0  0  0  0  0  0  0  0
   10.3885   -4.4388   19.2773 C   0  0  0  0  0  0  0  0  0  0  0  0
    4.5160   -9.3822   15.0841 C   0  0  0  0  0  0  0  0  0  0  0  0
  1  3  4  0
  1 24  4  0
  2  6  4  0
  2 15  4  0
  3  5  4  0
  3  6  4  0
  4 21  4  0
  4 29  4  0
  5 15  4  0
  5 28  1  0
  6 16  4  0
  7 18  4  0
  7 26  4  0
  8 18  1  0
  8 19  4  0
  8 22  4  0
  9 12  4  0
  9 19  4  0
 10 12  4  0
 10 22  4  0
 11 20  4  0
 11 21  4  0
 12 23  1  0
 13 20  4  0
 13 29  4  0
 14 17  4  0
 14 28  4  0
 15 25  2  0
 16 27  4  0
 17 18  4  0
 20 27  1  0
 24 27  4  0
 26 28  4  0
M  END
$$$$

 Created by Python create_sdf_string function

 29 33  0  0  0  0  0  0  0  0999 V2000
    8.8270   -7.0288   18.4251 C   0  0  0  0  0  0  0  0  0  0  0  0
    9.1576   -4.6236   15.8860 O   0  0  0  0  0  0  0  0  0  0  0  0
    9.1509   -5.9108   17.7177 C   0  0  0  0  0  0  0  0  0  0  0  0
    3.6373   -9.5349   16.0582 N   0  0  0  0  0  0  0  0  0  0  0  0
    9.9275   -4.8001   18.0438 N   0  0  0  0  0  0  0  0  0  0  0  0
    8.5908   -5.7425   16.4412 C   0  0  0  0  0  0  0  0  0  0  0  0
   10.5993   -4.8981   21.6068 C   0  0  0  0  0  0  0  0  0  0  0  0
   10.4258   -3.0106   23.0998 C   0  0  0  0  0  0  0  0  0  0  0  0
   10.2148   -3.4364   25.4200 C   0  0  0  0  0  0  0  0  0  0  0  0
    9.7853   -1.1840   24.4927 C   0  0  0  0  0  0  0  0  0  0  0  0
    5.0276   -8.5227   17.5352 C   0  0  0  0  0  0  0  0  0  0  0  0
    9.8187   -2.0895   25.5800 C   0  0  0  0  0  0  0  0  0  0  0  0
    5.6473   -8.7216   15.3158 C   0  0  0  0  0  0  0  0  0  0  0  0
   10.7581   -3.1233   19.4720 N   0  0  0  0  0  0  0  0  0  0  0  0
    9.9571   -4.0573   16.8866 C   0  0  0  0  0  0  0  0  0  0  0  0
    7.6213   -6.5618   16.0087 C   0  0  0  0  0  0  0  0  0  0  0  0
   10.8583   -2.6527   20.7222 C   0  0  0  0  0  0  0  0  0  0  0  0
   10.6412   -3.5089   21.7936 C   0  0  0  0  0  0  0  0  0  0  0  0
   10.4972   -3.8968   24.1589 C   0  0  0  0  0  0  0  0  0  0  0  0
    5.9260   -8.2736   16.5517 C   0  0  0  0  0  0  0  0  0  0  0  0
    3.8816   -9.1166   17.2493 C   0  0  0  0  0  0  0  0  0  0  0  0
   10.1297   -1.6575   23.2324 C   0  0  0  0  0  0  0  0  0  0  0  0
    9.4684   -1.6929   26.7263 F   0  0  0  0  0  0  0  0  0  0  0  0
    7.7963   -7.7906   17.9837 C   0  0  0  0  0  0  0  0  0  0  0  0
   10.5884   -3.0725   16.7902 O   0  0  0  0  0  0  0  0  0  0  0  0
   10.4323   -5.3494   20.3516 C   0  0  0  0  0  0  0  0  0  0  0  0
    7.1156   -7.5454   16.8218 C   0  0  0  0  0  0  0  0  0  0  0  0
   10.3885   -4.4388   19.2773 C   0  0  0  0  0  0  0  0  0  0  0  0
    4.5160   -9.3822   15.0841 C   0  0  0  0  0  0  0  0  0  0  0  0
  1  3  4  0
  1 24  4  0
  2  6  4  0
  2 15  4  0
  3  5  4  0
  3  6  4  0
  4 21  4  0
  4 29  4  0
  5 15  4  0
  5 28  1  0
  6 16  4  0
  7 18  4  0
  7 26  4  0
  8 18  1  0
  8 19  4  0
  8 22  4  0
  9 12  4  0
  9 19  4  0
 10 12  4  0
 10 22  4  0
 11 20  4  0
 11 21  4  0
 12 23  1  0
 13 20  4  0
 13 29  4  0
 14 17  4  0
 14 28  4  0
 15 25  2  0
 16 27  4  0
 17 18  4  0
 20 27  1  0
 24 27  4  0
 26 28  4  0
M  END
$$$$

 Created by Python create_sdf_string function

 29 33  0  0  0  0  0  0  0  0999 V2000
    8.8270   -7.0288   18.4251 C   0  0  0  0  0  0  0  0  0  0  0  0
    9.1576   -4.6236   15.8860 O   0  0  0  0  0  0  0  0  0  0  0  0
    9.1509   -5.9108   17.7177 C   0  0  0  0  0  0  0  0  0  0  0  0
    3.6373   -9.5349   16.0582 N   0  0  0  0  0  0  0  0  0  0  0  0
    9.9275   -4.8001   18.0438 N   0  0  0  0  0  0  0  0  0  0  0  0
    8.5908   -5.7425   16.4412 C   0  0  0  0  0  0  0  0  0  0  0  0
   10.5993   -4.8981   21.6068 C   0  0  0  0  0  0  0  0  0  0  0  0
   10.4258   -3.0106   23.0998 C   0  0  0  0  0  0  0  0  0  0  0  0
   10.2148   -3.4364   25.4200 C   0  0  0  0  0  0  0  0  0  0  0  0
    9.7853   -1.1840   24.4927 C   0  0  0  0  0  0  0  0  0  0  0  0
    5.0276   -8.5227   17.5352 C   0  0  0  0  0  0  0  0  0  0  0  0
    9.8187   -2.0895   25.5800 C   0  0  0  0  0  0  0  0  0  0  0  0
    5.6473   -8.7216   15.3158 C   0  0  0  0  0  0  0  0  0  0  0  0
   10.7581   -3.1233   19.4720 N   0  0  0  0  0  0  0  0  0  0  0  0
    9.9571   -4.0573   16.8866 C   0  0  0  0  0  0  0  0  0  0  0  0
    7.6213   -6.5618   16.0087 C   0  0  0  0  0  0  0  0  0  0  0  0
   10.8583   -2.6527   20.7222 C   0  0  0  0  0  0  0  0  0  0  0  0
   10.6412   -3.5089   21.7936 C   0  0  0  0  0  0  0  0  0  0  0  0
   10.4972   -3.8968   24.1589 C   0  0  0  0  0  0  0  0  0  0  0  0
    5.9260   -8.2736   16.5517 C   0  0  0  0  0  0  0  0  0  0  0  0
    3.8816   -9.1166   17.2493 C   0  0  0  0  0  0  0  0  0  0  0  0
   10.1297   -1.6575   23.2324 C   0  0  0  0  0  0  0  0  0  0  0  0
    9.4684   -1.6929   26.7263 F   0  0  0  0  0  0  0  0  0  0  0  0
    7.7963   -7.7906   17.9837 C   0  0  0  0  0  0  0  0  0  0  0  0
   10.5884   -3.0725   16.7902 O   0  0  0  0  0  0  0  0  0  0  0  0
   10.4323   -5.3494   20.3516 C   0  0  0  0  0  0  0  0  0  0  0  0
    7.1156   -7.5454   16.8218 C   0  0  0  0  0  0  0  0  0  0  0  0
   10.3885   -4.4388   19.2773 C   0  0  0  0  0  0  0  0  0  0  0  0
    4.5160   -9.3822   15.0841 C   0  0  0  0  0  0  0  0  0  0  0  0
  1  3  4  0
  1 24  4  0
  2  6  4  0
  2 15  4  0
  3  5  4  0
  3  6  4  0
  4 21  4  0
  4 29  4  0
  5 15  4  0
  5 28  1  0
  6 16  4  0
  7 18  4  0
  7 26  4  0
  8 18  1  0
  8 19  4  0
  8 22  4  0
  9 12  4  0
  9 19  4  0
 10 12  4  0
 10 22  4  0
 11 20  4  0
 11 21  4  0
 12 23  1  0
 13 20  4  0
 13 29  4  0
 14 17  4  0
 14 28  4  0
 15 25  2  0
 16 27  4  0
 17 18  4  0
 20 27  1  0
 24 27  4  0
 26 28  4  0
M  END
$$$$

 Created by Python create_sdf_string function

 29 33  0  0  0  0  0  0  0  0999 V2000
    8.8270   -7.0288   18.4251 C   0  0  0  0  0  0  0  0  0  0  0  0
    9.1576   -4.6236   15.8860 O   0  0  0  0  0  0  0  0  0  0  0  0
    9.1509   -5.9108   17.7177 C   0  0  0  0  0  0  0  0  0  0  0  0
    3.6373   -9.5349   16.0582 N   0  0  0  0  0  0  0  0  0  0  0  0
    9.9275   -4.8001   18.0438 N   0  0  0  0  0  0  0  0  0  0  0  0
    8.5908   -5.7425   16.4412 C   0  0  0  0  0  0  0  0  0  0  0  0
   10.5993   -4.8981   21.6068 C   0  0  0  0  0  0  0  0  0  0  0  0
   10.4258   -3.0106   23.0998 C   0  0  0  0  0  0  0  0  0  0  0  0
   10.2148   -3.4364   25.4200 C   0  0  0  0  0  0  0  0  0  0  0  0
    9.7853   -1.1840   24.4927 C   0  0  0  0  0  0  0  0  0  0  0  0
    5.0276   -8.5227   17.5352 C   0  0  0  0  0  0  0  0  0  0  0  0
    9.8187   -2.0895   25.5800 C   0  0  0  0  0  0  0  0  0  0  0  0
    5.6473   -8.7216   15.3158 C   0  0  0  0  0  0  0  0  0  0  0  0
   10.7581   -3.1233   19.4720 N   0  0  0  0  0  0  0  0  0  0  0  0
    9.9571   -4.0573   16.8866 C   0  0  0  0  0  0  0  0  0  0  0  0
    7.6213   -6.5618   16.0087 C   0  0  0  0  0  0  0  0  0  0  0  0
   10.8583   -2.6527   20.7222 C   0  0  0  0  0  0  0  0  0  0  0  0
   10.6412   -3.5089   21.7936 C   0  0  0  0  0  0  0  0  0  0  0  0
   10.4972   -3.8968   24.1589 C   0  0  0  0  0  0  0  0  0  0  0  0
    5.9260   -8.2736   16.5517 C   0  0  0  0  0  0  0  0  0  0  0  0
    3.8816   -9.1166   17.2493 C   0  0  0  0  0  0  0  0  0  0  0  0
   10.1297   -1.6575   23.2324 C   0  0  0  0  0  0  0  0  0  0  0  0
    9.4684   -1.6929   26.7263 F   0  0  0  0  0  0  0  0  0  0  0  0
    7.7963   -7.7906   17.9837 C   0  0  0  0  0  0  0  0  0  0  0  0
   10.5884   -3.0725   16.7902 O   0  0  0  0  0  0  0  0  0  0  0  0
   10.4323   -5.3494   20.3516 C   0  0  0  0  0  0  0  0  0  0  0  0
    7.1156   -7.5454   16.8218 C   0  0  0  0  0  0  0  0  0  0  0  0
   10.3885   -4.4388   19.2773 C   0  0  0  0  0  0  0  0  0  0  0  0
    4.5160   -9.3822   15.0841 C   0  0  0  0  0  0  0  0  0  0  0  0
  1  3  4  0
  1 24  4  0
  2  6  4  0
  2 15  4  0
  3  5  4  0
  3  6  4  0
  4 21  4  0
  4 29  4  0
  5 15  4  0
  5 28  1  0
  6 16  4  0
  7 18  4  0
  7 26  4  0
  8 18  1  0
  8 19  4  0
  8 22  4  0
  9 12  4  0
  9 19  4  0
 10 12  4  0
 10 22  4  0
 11 20  4  0
 11 21  4  0
 12 23  1  0
 13 20  4  0
 13 29  4  0
 14 17  4  0
 14 28  4  0
 15 25  2  0
 16 27  4  0
 17 18  4  0
 20 27  1  0
 24 27  4  0
 26 28  4  0
M  END
$$$$

 Created by Python create_sdf_string function

 29 33  0  0  0  0  0  0  0  0999 V2000
    8.8270   -7.0288   18.4251 C   0  0  0  0  0  0  0  0  0  0  0  0
    9.1576   -4.6236   15.8860 O   0  0  0  0  0  0  0  0  0  0  0  0
    9.1509   -5.9108   17.7177 C   0  0  0  0  0  0  0  0  0  0  0  0
    3.6373   -9.5349   16.0582 N   0  0  0  0  0  0  0  0  0  0  0  0
    9.9275   -4.8001   18.0438 N   0  0  0  0  0  0  0  0  0  0  0  0
    8.5908   -5.7425   16.4412 C   0  0  0  0  0  0  0  0  0  0  0  0
   10.5993   -4.8981   21.6068 C   0  0  0  0  0  0  0  0  0  0  0  0
   10.4258   -3.0106   23.0998 C   0  0  0  0  0  0  0  0  0  0  0  0
   10.2148   -3.4364   25.4200 C   0  0  0  0  0  0  0  0  0  0  0  0
    9.7853   -1.1840   24.4927 C   0  0  0  0  0  0  0  0  0  0  0  0
    5.0276   -8.5227   17.5352 C   0  0  0  0  0  0  0  0  0  0  0  0
    9.8187   -2.0895   25.5800 C   0  0  0  0  0  0  0  0  0  0  0  0
    5.6473   -8.7216   15.3158 C   0  0  0  0  0  0  0  0  0  0  0  0
   10.7581   -3.1233   19.4720 N   0  0  0  0  0  0  0  0  0  0  0  0
    9.9571   -4.0573   16.8866 C   0  0  0  0  0  0  0  0  0  0  0  0
    7.6213   -6.5618   16.0087 C   0  0  0  0  0  0  0  0  0  0  0  0
   10.8583   -2.6527   20.7222 C   0  0  0  0  0  0  0  0  0  0  0  0
   10.6412   -3.5089   21.7936 C   0  0  0  0  0  0  0  0  0  0  0  0
   10.4972   -3.8968   24.1589 C   0  0  0  0  0  0  0  0  0  0  0  0
    5.9260   -8.2736   16.5517 C   0  0  0  0  0  0  0  0  0  0  0  0
    3.8816   -9.1166   17.2493 C   0  0  0  0  0  0  0  0  0  0  0  0
   10.1297   -1.6575   23.2324 C   0  0  0  0  0  0  0  0  0  0  0  0
    9.4684   -1.6929   26.7263 F   0  0  0  0  0  0  0  0  0  0  0  0
    7.7963   -7.7906   17.9837 C   0  0  0  0  0  0  0  0  0  0  0  0
   10.5884   -3.0725   16.7902 O   0  0  0  0  0  0  0  0  0  0  0  0
   10.4323   -5.3494   20.3516 C   0  0  0  0  0  0  0  0  0  0  0  0
    7.1156   -7.5454   16.8218 C   0  0  0  0  0  0  0  0  0  0  0  0
   10.3885   -4.4388   19.2773 C   0  0  0  0  0  0  0  0  0  0  0  0
    4.5160   -9.3822   15.0841 C   0  0  0  0  0  0  0  0  0  0  0  0
  1  3  4  0
  1 24  4  0
  2  6  4  0
  2 15  4  0
  3  5  4  0
  3  6  4  0
  4 21  4  0
  4 29  4  0
  5 15  4  0
  5 28  1  0
  6 16  4  0
  7 18  4  0
  7 26  4  0
  8 18  1  0
  8 19  4  0
  8 22  4  0
  9 12  4  0
  9 19  4  0
 10 12  4  0
 10 22  4  0
 11 20  4  0
 11 21  4  0
 12 23  1  0
 13 20  4  0
 13 29  4  0
 14 17  4  0
 14 28  4  0
 15 25  2  0
 16 27  4  0
 17 18  4  0
 20 27  1  0
 24 27  4  0
 26 28  4  0
M  END
$$$$

 Created by Python create_sdf_string function

 29 33  0  0  0  0  0  0  0  0999 V2000
    8.8270   -7.0288   18.4251 C   0  0  0  0  0  0  0  0  0  0  0  0
    9.1576   -4.6236   15.8860 O   0  0  0  0  0  0  0  0  0  0  0  0
    9.1509   -5.9108   17.7177 C   0  0  0  0  0  0  0  0  0  0  0  0
    3.6373   -9.5349   16.0582 N   0  0  0  0  0  0  0  0  0  0  0  0
    9.9275   -4.8001   18.0438 N   0  0  0  0  0  0  0  0  0  0  0  0
    8.5908   -5.7425   16.4412 C   0  0  0  0  0  0  0  0  0  0  0  0
   10.5993   -4.8981   21.6068 C   0  0  0  0  0  0  0  0  0  0  0  0
   10.4258   -3.0106   23.0998 C   0  0  0  0  0  0  0  0  0  0  0  0
   10.2148   -3.4364   25.4200 C   0  0  0  0  0  0  0  0  0  0  0  0
    9.7853   -1.1840   24.4927 C   0  0  0  0  0  0  0  0  0  0  0  0
    5.0276   -8.5227   17.5352 C   0  0  0  0  0  0  0  0  0  0  0  0
    9.8187   -2.0895   25.5800 C   0  0  0  0  0  0  0  0  0  0  0  0
    5.6473   -8.7216   15.3158 C   0  0  0  0  0  0  0  0  0  0  0  0
   10.7581   -3.1233   19.4720 N   0  0  0  0  0  0  0  0  0  0  0  0
    9.9571   -4.0573   16.8866 C   0  0  0  0  0  0  0  0  0  0  0  0
    7.6213   -6.5618   16.0087 C   0  0  0  0  0  0  0  0  0  0  0  0
   10.8583   -2.6527   20.7222 C   0  0  0  0  0  0  0  0  0  0  0  0
   10.6412   -3.5089   21.7936 C   0  0  0  0  0  0  0  0  0  0  0  0
   10.4972   -3.8968   24.1589 C   0  0  0  0  0  0  0  0  0  0  0  0
    5.9260   -8.2736   16.5517 C   0  0  0  0  0  0  0  0  0  0  0  0
    3.8816   -9.1166   17.2493 C   0  0  0  0  0  0  0  0  0  0  0  0
   10.1297   -1.6575   23.2324 C   0  0  0  0  0  0  0  0  0  0  0  0
    9.4684   -1.6929   26.7263 F   0  0  0  0  0  0  0  0  0  0  0  0
    7.7963   -7.7906   17.9837 C   0  0  0  0  0  0  0  0  0  0  0  0
   10.5884   -3.0725   16.7902 O   0  0  0  0  0  0  0  0  0  0  0  0
   10.4323   -5.3494   20.3516 C   0  0  0  0  0  0  0  0  0  0  0  0
    7.1156   -7.5454   16.8218 C   0  0  0  0  0  0  0  0  0  0  0  0
   10.3885   -4.4388   19.2773 C   0  0  0  0  0  0  0  0  0  0  0  0
    4.5160   -9.3822   15.0841 C   0  0  0  0  0  0  0  0  0  0  0  0
  1  3  4  0
  1 24  4  0
  2  6  4  0
  2 15  4  0
  3  5  4  0
  3  6  4  0
  4 21  4  0
  4 29  4  0
  5 15  4  0
  5 28  1  0
  6 16  4  0
  7 18  4  0
  7 26  4  0
  8 18  1  0
  8 19  4  0
  8 22  4  0
  9 12  4  0
  9 19  4  0
 10 12  4  0
 10 22  4  0
 11 20  4  0
 11 21  4  0
 12 23  1  0
 13 20  4  0
 13 29  4  0
 14 17  4  0
 14 28  4  0
 15 25  2  0
 16 27  4  0
 17 18  4  0
 20 27  1  0
 24 27  4  0
 26 28  4  0
M  END
$$$$

 Created by Python create_sdf_string function

 29 33  0  0  0  0  0  0  0  0999 V2000
    8.8270   -7.0288   18.4251 C   0  0  0  0  0  0  0  0  0  0  0  0
    9.1576   -4.6236   15.8860 O   0  0  0  0  0  0  0  0  0  0  0  0
    9.1509   -5.9108   17.7177 C   0  0  0  0  0  0  0  0  0  0  0  0
    3.6373   -9.5349   16.0582 N   0  0  0  0  0  0  0  0  0  0  0  0
    9.9275   -4.8001   18.0438 N   0  0  0  0  0  0  0  0  0  0  0  0
    8.5908   -5.7425   16.4412 C   0  0  0  0  0  0  0  0  0  0  0  0
   10.5993   -4.8981   21.6068 C   0  0  0  0  0  0  0  0  0  0  0  0
   10.4258   -3.0106   23.0998 C   0  0  0  0  0  0  0  0  0  0  0  0
   10.2148   -3.4364   25.4200 C   0  0  0  0  0  0  0  0  0  0  0  0
    9.7853   -1.1840   24.4927 C   0  0  0  0  0  0  0  0  0  0  0  0
    5.0276   -8.5227   17.5352 C   0  0  0  0  0  0  0  0  0  0  0  0
    9.8187   -2.0895   25.5800 C   0  0  0  0  0  0  0  0  0  0  0  0
    5.6473   -8.7216   15.3158 C   0  0  0  0  0  0  0  0  0  0  0  0
   10.7581   -3.1233   19.4720 N   0  0  0  0  0  0  0  0  0  0  0  0
    9.9571   -4.0573   16.8866 C   0  0  0  0  0  0  0  0  0  0  0  0
    7.6213   -6.5618   16.0087 C   0  0  0  0  0  0  0  0  0  0  0  0
   10.8583   -2.6527   20.7222 C   0  0  0  0  0  0  0  0  0  0  0  0
   10.6412   -3.5089   21.7936 C   0  0  0  0  0  0  0  0  0  0  0  0
   10.4972   -3.8968   24.1589 C   0  0  0  0  0  0  0  0  0  0  0  0
    5.9260   -8.2736   16.5517 C   0  0  0  0  0  0  0  0  0  0  0  0
    3.8816   -9.1166   17.2493 C   0  0  0  0  0  0  0  0  0  0  0  0
   10.1297   -1.6575   23.2324 C   0  0  0  0  0  0  0  0  0  0  0  0
    9.4684   -1.6929   26.7263 F   0  0  0  0  0  0  0  0  0  0  0  0
    7.7963   -7.7906   17.9837 C   0  0  0  0  0  0  0  0  0  0  0  0
   10.5884   -3.0725   16.7902 O   0  0  0  0  0  0  0  0  0  0  0  0
   10.4323   -5.3494   20.3516 C   0  0  0  0  0  0  0  0  0  0  0  0
    7.1156   -7.5454   16.8218 C   0  0  0  0  0  0  0  0  0  0  0  0
   10.3885   -4.4388   19.2773 C   0  0  0  0  0  0  0  0  0  0  0  0
    4.5160   -9.3822   15.0841 C   0  0  0  0  0  0  0  0  0  0  0  0
  1  3  4  0
  1 24  4  0
  2  6  4  0
  2 15  4  0
  3  5  4  0
  3  6  4  0
  4 21  4  0
  4 29  4  0
  5 15  4  0
  5 28  1  0
  6 16  4  0
  7 18  4  0
  7 26  4  0
  8 18  1  0
  8 19  4  0
  8 22  4  0
  9 12  4  0
  9 19  4  0
 10 12  4  0
 10 22  4  0
 11 20  4  0
 11 21  4  0
 12 23  1  0
 13 20  4  0
 13 29  4  0
 14 17  4  0
 14 28  4  0
 15 25  2  0
 16 27  4  0
 17 18  4  0
 20 27  1  0
 24 27  4  0
 26 28  4  0
M  END
$$$$

 Created by Python create_sdf_string function

 29 33  0  0  0  0  0  0  0  0999 V2000
    8.8270   -7.0288   18.4251 C   0  0  0  0  0  0  0  0  0  0  0  0
    9.1576   -4.6236   15.8860 O   0  0  0  0  0  0  0  0  0  0  0  0
    9.1509   -5.9108   17.7177 C   0  0  0  0  0  0  0  0  0  0  0  0
    3.6373   -9.5349   16.0582 N   0  0  0  0  0  0  0  0  0  0  0  0
    9.9275   -4.8001   18.0438 N   0  0  0  0  0  0  0  0  0  0  0  0
    8.5908   -5.7425   16.4412 C   0  0  0  0  0  0  0  0  0  0  0  0
   10.5993   -4.8981   21.6068 C   0  0  0  0  0  0  0  0  0  0  0  0
   10.4258   -3.0106   23.0998 C   0  0  0  0  0  0  0  0  0  0  0  0
   10.2148   -3.4364   25.4200 C   0  0  0  0  0  0  0  0  0  0  0  0
    9.7853   -1.1840   24.4927 C   0  0  0  0  0  0  0  0  0  0  0  0
    5.0276   -8.5227   17.5352 C   0  0  0  0  0  0  0  0  0  0  0  0
    9.8187   -2.0895   25.5800 C   0  0  0  0  0  0  0  0  0  0  0  0
    5.6473   -8.7216   15.3158 C   0  0  0  0  0  0  0  0  0  0  0  0
   10.7581   -3.1233   19.4720 N   0  0  0  0  0  0  0  0  0  0  0  0
    9.9571   -4.0573   16.8866 C   0  0  0  0  0  0  0  0  0  0  0  0
    7.6213   -6.5618   16.0087 C   0  0  0  0  0  0  0  0  0  0  0  0
   10.8583   -2.6527   20.7222 C   0  0  0  0  0  0  0  0  0  0  0  0
   10.6412   -3.5089   21.7936 C   0  0  0  0  0  0  0  0  0  0  0  0
   10.4972   -3.8968   24.1589 C   0  0  0  0  0  0  0  0  0  0  0  0
    5.9260   -8.2736   16.5517 C   0  0  0  0  0  0  0  0  0  0  0  0
    3.8816   -9.1166   17.2493 C   0  0  0  0  0  0  0  0  0  0  0  0
   10.1297   -1.6575   23.2324 C   0  0  0  0  0  0  0  0  0  0  0  0
    9.4684   -1.6929   26.7263 F   0  0  0  0  0  0  0  0  0  0  0  0
    7.7963   -7.7906   17.9837 C   0  0  0  0  0  0  0  0  0  0  0  0
   10.5884   -3.0725   16.7902 O   0  0  0  0  0  0  0  0  0  0  0  0
   10.4323   -5.3494   20.3516 C   0  0  0  0  0  0  0  0  0  0  0  0
    7.1156   -7.5454   16.8218 C   0  0  0  0  0  0  0  0  0  0  0  0
   10.3885   -4.4388   19.2773 C   0  0  0  0  0  0  0  0  0  0  0  0
    4.5160   -9.3822   15.0841 C   0  0  0  0  0  0  0  0  0  0  0  0
  1  3  4  0
  1 24  4  0
  2  6  4  0
  2 15  4  0
  3  5  4  0
  3  6  4  0
  4 21  4  0
  4 29  4  0
  5 15  4  0
  5 28  1  0
  6 16  4  0
  7 18  4  0
  7 26  4  0
  8 18  1  0
  8 19  4  0
  8 22  4  0
  9 12  4  0
  9 19  4  0
 10 12  4  0
 10 22  4  0
 11 20  4  0
 11 21  4  0
 12 23  1  0
 13 20  4  0
 13 29  4  0
 14 17  4  0
 14 28  4  0
 15 25  2  0
 16 27  4  0
 17 18  4  0
 20 27  1  0
 24 27  4  0
 26 28  4  0
M  END
$$$$

 Created by Python create_sdf_string function

 29 33  0  0  0  0  0  0  0  0999 V2000
    8.8270   -7.0288   18.4251 C   0  0  0  0  0  0  0  0  0  0  0  0
    9.1576   -4.6236   15.8860 O   0  0  0  0  0  0  0  0  0  0  0  0
    9.1509   -5.9108   17.7177 C   0  0  0  0  0  0  0  0  0  0  0  0
    3.6373   -9.5349   16.0582 N   0  0  0  0  0  0  0  0  0  0  0  0
    9.9275   -4.8001   18.0438 N   0  0  0  0  0  0  0  0  0  0  0  0
    8.5908   -5.7425   16.4412 C   0  0  0  0  0  0  0  0  0  0  0  0
   10.5993   -4.8981   21.6068 C   0  0  0  0  0  0  0  0  0  0  0  0
   10.4258   -3.0106   23.0998 C   0  0  0  0  0  0  0  0  0  0  0  0
   10.2148   -3.4364   25.4200 C   0  0  0  0  0  0  0  0  0  0  0  0
    9.7853   -1.1840   24.4927 C   0  0  0  0  0  0  0  0  0  0  0  0
    5.0276   -8.5227   17.5352 C   0  0  0  0  0  0  0  0  0  0  0  0
    9.8187   -2.0895   25.5800 C   0  0  0  0  0  0  0  0  0  0  0  0
    5.6473   -8.7216   15.3158 C   0  0  0  0  0  0  0  0  0  0  0  0
   10.7581   -3.1233   19.4720 N   0  0  0  0  0  0  0  0  0  0  0  0
    9.9571   -4.0573   16.8866 C   0  0  0  0  0  0  0  0  0  0  0  0
    7.6213   -6.5618   16.0087 C   0  0  0  0  0  0  0  0  0  0  0  0
   10.8583   -2.6527   20.7222 C   0  0  0  0  0  0  0  0  0  0  0  0
   10.6412   -3.5089   21.7936 C   0  0  0  0  0  0  0  0  0  0  0  0
   10.4972   -3.8968   24.1589 C   0  0  0  0  0  0  0  0  0  0  0  0
    5.9260   -8.2736   16.5517 C   0  0  0  0  0  0  0  0  0  0  0  0
    3.8816   -9.1166   17.2493 C   0  0  0  0  0  0  0  0  0  0  0  0
   10.1297   -1.6575   23.2324 C   0  0  0  0  0  0  0  0  0  0  0  0
    9.4684   -1.6929   26.7263 F   0  0  0  0  0  0  0  0  0  0  0  0
    7.7963   -7.7906   17.9837 C   0  0  0  0  0  0  0  0  0  0  0  0
   10.5884   -3.0725   16.7902 O   0  0  0  0  0  0  0  0  0  0  0  0
   10.4323   -5.3494   20.3516 C   0  0  0  0  0  0  0  0  0  0  0  0
    7.1156   -7.5454   16.8218 C   0  0  0  0  0  0  0  0  0  0  0  0
   10.3885   -4.4388   19.2773 C   0  0  0  0  0  0  0  0  0  0  0  0
    4.5160   -9.3822   15.0841 C   0  0  0  0  0  0  0  0  0  0  0  0
  1  3  4  0
  1 24  4  0
  2  6  4  0
  2 15  4  0
  3  5  4  0
  3  6  4  0
  4 21  4  0
  4 29  4  0
  5 15  4  0
  5 28  1  0
  6 16  4  0
  7 18  4  0
  7 26  4  0
  8 18  1  0
  8 19  4  0
  8 22  4  0
  9 12  4  0
  9 19  4  0
 10 12  4  0
 10 22  4  0
 11 20  4  0
 11 21  4  0
 12 23  1  0
 13 20  4  0
 13 29  4  0
 14 17  4  0
 14 28  4  0
 15 25  2  0
 16 27  4  0
 17 18  4  0
 20 27  1  0
 24 27  4  0
 26 28  4  0
M  END
$$$$

 Created by Python create_sdf_string function

 29 33  0  0  0  0  0  0  0  0999 V2000
    8.8270   -7.0288   18.4251 C   0  0  0  0  0  0  0  0  0  0  0  0
    9.1576   -4.6236   15.8860 O   0  0  0  0  0  0  0  0  0  0  0  0
    9.1509   -5.9108   17.7177 C   0  0  0  0  0  0  0  0  0  0  0  0
    3.6373   -9.5349   16.0582 N   0  0  0  0  0  0  0  0  0  0  0  0
    9.9275   -4.8001   18.0438 N   0  0  0  0  0  0  0  0  0  0  0  0
    8.5908   -5.7425   16.4412 C   0  0  0  0  0  0  0  0  0  0  0  0
   10.5993   -4.8981   21.6068 C   0  0  0  0  0  0  0  0  0  0  0  0
   10.4258   -3.0106   23.0998 C   0  0  0  0  0  0  0  0  0  0  0  0
   10.2148   -3.4364   25.4200 C   0  0  0  0  0  0  0  0  0  0  0  0
    9.7853   -1.1840   24.4927 C   0  0  0  0  0  0  0  0  0  0  0  0
    5.0276   -8.5227   17.5352 C   0  0  0  0  0  0  0  0  0  0  0  0
    9.8187   -2.0895   25.5800 C   0  0  0  0  0  0  0  0  0  0  0  0
    5.6473   -8.7216   15.3158 C   0  0  0  0  0  0  0  0  0  0  0  0
   10.7581   -3.1233   19.4720 N   0  0  0  0  0  0  0  0  0  0  0  0
    9.9571   -4.0573   16.8866 C   0  0  0  0  0  0  0  0  0  0  0  0
    7.6213   -6.5618   16.0087 C   0  0  0  0  0  0  0  0  0  0  0  0
   10.8583   -2.6527   20.7222 C   0  0  0  0  0  0  0  0  0  0  0  0
   10.6412   -3.5089   21.7936 C   0  0  0  0  0  0  0  0  0  0  0  0
   10.4972   -3.8968   24.1589 C   0  0  0  0  0  0  0  0  0  0  0  0
    5.9260   -8.2736   16.5517 C   0  0  0  0  0  0  0  0  0  0  0  0
    3.8816   -9.1166   17.2493 C   0  0  0  0  0  0  0  0  0  0  0  0
   10.1297   -1.6575   23.2324 C   0  0  0  0  0  0  0  0  0  0  0  0
    9.4684   -1.6929   26.7263 F   0  0  0  0  0  0  0  0  0  0  0  0
    7.7963   -7.7906   17.9837 C   0  0  0  0  0  0  0  0  0  0  0  0
   10.5884   -3.0725   16.7902 O   0  0  0  0  0  0  0  0  0  0  0  0
   10.4323   -5.3494   20.3516 C   0  0  0  0  0  0  0  0  0  0  0  0
    7.1156   -7.5454   16.8218 C   0  0  0  0  0  0  0  0  0  0  0  0
   10.3885   -4.4388   19.2773 C   0  0  0  0  0  0  0  0  0  0  0  0
    4.5160   -9.3822   15.0841 C   0  0  0  0  0  0  0  0  0  0  0  0
  1  3  4  0
  1 24  4  0
  2  6  4  0
  2 15  4  0
  3  5  4  0
  3  6  4  0
  4 21  4  0
  4 29  4  0
  5 15  4  0
  5 28  1  0
  6 16  4  0
  7 18  4  0
  7 26  4  0
  8 18  1  0
  8 19  4  0
  8 22  4  0
  9 12  4  0
  9 19  4  0
 10 12  4  0
 10 22  4  0
 11 20  4  0
 11 21  4  0
 12 23  1  0
 13 20  4  0
 13 29  4  0
 14 17  4  0
 14 28  4  0
 15 25  2  0
 16 27  4  0
 17 18  4  0
 20 27  1  0
 24 27  4  0
 26 28  4  0
M  END
$$$$

 Created by Python create_sdf_string function

 29 33  0  0  0  0  0  0  0  0999 V2000
    8.8270   -7.0288   18.4251 C   0  0  0  0  0  0  0  0  0  0  0  0
    9.1576   -4.6236   15.8860 O   0  0  0  0  0  0  0  0  0  0  0  0
    9.1509   -5.9108   17.7177 C   0  0  0  0  0  0  0  0  0  0  0  0
    3.6373   -9.5349   16.0582 N   0  0  0  0  0  0  0  0  0  0  0  0
    9.9275   -4.8001   18.0438 N   0  0  0  0  0  0  0  0  0  0  0  0
    8.5908   -5.7425   16.4412 C   0  0  0  0  0  0  0  0  0  0  0  0
   10.5993   -4.8981   21.6068 C   0  0  0  0  0  0  0  0  0  0  0  0
   10.4258   -3.0106   23.0998 C   0  0  0  0  0  0  0  0  0  0  0  0
   10.2148   -3.4364   25.4200 C   0  0  0  0  0  0  0  0  0  0  0  0
    9.7853   -1.1840   24.4927 C   0  0  0  0  0  0  0  0  0  0  0  0
    5.0276   -8.5227   17.5352 C   0  0  0  0  0  0  0  0  0  0  0  0
    9.8187   -2.0895   25.5800 C   0  0  0  0  0  0  0  0  0  0  0  0
    5.6473   -8.7216   15.3158 C   0  0  0  0  0  0  0  0  0  0  0  0
   10.7581   -3.1233   19.4720 N   0  0  0  0  0  0  0  0  0  0  0  0
    9.9571   -4.0573   16.8866 C   0  0  0  0  0  0  0  0  0  0  0  0
    7.6213   -6.5618   16.0087 C   0  0  0  0  0  0  0  0  0  0  0  0
   10.8583   -2.6527   20.7222 C   0  0  0  0  0  0  0  0  0  0  0  0
   10.6412   -3.5089   21.7936 C   0  0  0  0  0  0  0  0  0  0  0  0
   10.4972   -3.8968   24.1589 C   0  0  0  0  0  0  0  0  0  0  0  0
    5.9260   -8.2736   16.5517 C   0  0  0  0  0  0  0  0  0  0  0  0
    3.8816   -9.1166   17.2493 C   0  0  0  0  0  0  0  0  0  0  0  0
   10.1297   -1.6575   23.2324 C   0  0  0  0  0  0  0  0  0  0  0  0
    9.4684   -1.6929   26.7263 F   0  0  0  0  0  0  0  0  0  0  0  0
    7.7963   -7.7906   17.9837 C   0  0  0  0  0  0  0  0  0  0  0  0
   10.5884   -3.0725   16.7902 O   0  0  0  0  0  0  0  0  0  0  0  0
   10.4323   -5.3494   20.3516 C   0  0  0  0  0  0  0  0  0  0  0  0
    7.1156   -7.5454   16.8218 C   0  0  0  0  0  0  0  0  0  0  0  0
   10.3885   -4.4388   19.2773 C   0  0  0  0  0  0  0  0  0  0  0  0
    4.5160   -9.3822   15.0841 C   0  0  0  0  0  0  0  0  0  0  0  0
  1  3  4  0
  1 24  4  0
  2  6  4  0
  2 15  4  0
  3  5  4  0
  3  6  4  0
  4 21  4  0
  4 29  4  0
  5 15  4  0
  5 28  1  0
  6 16  4  0
  7 18  4  0
  7 26  4  0
  8 18  1  0
  8 19  4  0
  8 22  4  0
  9 12  4  0
  9 19  4  0
 10 12  4  0
 10 22  4  0
 11 20  4  0
 11 21  4  0
 12 23  1  0
 13 20  4  0
 13 29  4  0
 14 17  4  0
 14 28  4  0
 15 25  2  0
 16 27  4  0
 17 18  4  0
 20 27  1  0
 24 27  4  0
 26 28  4  0
M  END
$$$$

 Created by Python create_sdf_string function

 29 33  0  0  0  0  0  0  0  0999 V2000
    8.8270   -7.0288   18.4251 C   0  0  0  0  0  0  0  0  0  0  0  0
    9.1576   -4.6236   15.8860 O   0  0  0  0  0  0  0  0  0  0  0  0
    9.1509   -5.9108   17.7177 C   0  0  0  0  0  0  0  0  0  0  0  0
    3.6373   -9.5349   16.0582 N   0  0  0  0  0  0  0  0  0  0  0  0
    9.9275   -4.8001   18.0438 N   0  0  0  0  0  0  0  0  0  0  0  0
    8.5908   -5.7425   16.4412 C   0  0  0  0  0  0  0  0  0  0  0  0
   10.5993   -4.8981   21.6068 C   0  0  0  0  0  0  0  0  0  0  0  0
   10.4258   -3.0106   23.0998 C   0  0  0  0  0  0  0  0  0  0  0  0
   10.2148   -3.4364   25.4200 C   0  0  0  0  0  0  0  0  0  0  0  0
    9.7853   -1.1840   24.4927 C   0  0  0  0  0  0  0  0  0  0  0  0
    5.0276   -8.5227   17.5352 C   0  0  0  0  0  0  0  0  0  0  0  0
    9.8187   -2.0895   25.5800 C   0  0  0  0  0  0  0  0  0  0  0  0
    5.6473   -8.7216   15.3158 C   0  0  0  0  0  0  0  0  0  0  0  0
   10.7581   -3.1233   19.4720 N   0  0  0  0  0  0  0  0  0  0  0  0
    9.9571   -4.0573   16.8866 C   0  0  0  0  0  0  0  0  0  0  0  0
    7.6213   -6.5618   16.0087 C   0  0  0  0  0  0  0  0  0  0  0  0
   10.8583   -2.6527   20.7222 C   0  0  0  0  0  0  0  0  0  0  0  0
   10.6412   -3.5089   21.7936 C   0  0  0  0  0  0  0  0  0  0  0  0
   10.4972   -3.8968   24.1589 C   0  0  0  0  0  0  0  0  0  0  0  0
    5.9260   -8.2736   16.5517 C   0  0  0  0  0  0  0  0  0  0  0  0
    3.8816   -9.1166   17.2493 C   0  0  0  0  0  0  0  0  0  0  0  0
   10.1297   -1.6575   23.2324 C   0  0  0  0  0  0  0  0  0  0  0  0
    9.4684   -1.6929   26.7263 F   0  0  0  0  0  0  0  0  0  0  0  0
    7.7963   -7.7906   17.9837 C   0  0  0  0  0  0  0  0  0  0  0  0
   10.5884   -3.0725   16.7902 O   0  0  0  0  0  0  0  0  0  0  0  0
   10.4323   -5.3494   20.3516 C   0  0  0  0  0  0  0  0  0  0  0  0
    7.1156   -7.5454   16.8218 C   0  0  0  0  0  0  0  0  0  0  0  0
   10.3885   -4.4388   19.2773 C   0  0  0  0  0  0  0  0  0  0  0  0
    4.5160   -9.3822   15.0841 C   0  0  0  0  0  0  0  0  0  0  0  0
  1  3  4  0
  1 24  4  0
  2  6  4  0
  2 15  4  0
  3  5  4  0
  3  6  4  0
  4 21  4  0
  4 29  4  0
  5 15  4  0
  5 28  1  0
  6 16  4  0
  7 18  4  0
  7 26  4  0
  8 18  1  0
  8 19  4  0
  8 22  4  0
  9 12  4  0
  9 19  4  0
 10 12  4  0
 10 22  4  0
 11 20  4  0
 11 21  4  0
 12 23  1  0
 13 20  4  0
 13 29  4  0
 14 17  4  0
 14 28  4  0
 15 25  2  0
 16 27  4  0
 17 18  4  0
 20 27  1  0
 24 27  4  0
 26 28  4  0
M  END
$$$$

 Created by Python create_sdf_string function

 29 33  0  0  0  0  0  0  0  0999 V2000
    8.8270   -7.0288   18.4251 C   0  0  0  0  0  0  0  0  0  0  0  0
    9.1576   -4.6236   15.8860 O   0  0  0  0  0  0  0  0  0  0  0  0
    9.1509   -5.9108   17.7177 C   0  0  0  0  0  0  0  0  0  0  0  0
    3.6373   -9.5349   16.0582 N   0  0  0  0  0  0  0  0  0  0  0  0
    9.9275   -4.8001   18.0438 N   0  0  0  0  0  0  0  0  0  0  0  0
    8.5908   -5.7425   16.4412 C   0  0  0  0  0  0  0  0  0  0  0  0
   10.5993   -4.8981   21.6068 C   0  0  0  0  0  0  0  0  0  0  0  0
   10.4258   -3.0106   23.0998 C   0  0  0  0  0  0  0  0  0  0  0  0
   10.2148   -3.4364   25.4200 C   0  0  0  0  0  0  0  0  0  0  0  0
    9.7853   -1.1840   24.4927 C   0  0  0  0  0  0  0  0  0  0  0  0
    5.0276   -8.5227   17.5352 C   0  0  0  0  0  0  0  0  0  0  0  0
    9.8187   -2.0895   25.5800 C   0  0  0  0  0  0  0  0  0  0  0  0
    5.6473   -8.7216   15.3158 C   0  0  0  0  0  0  0  0  0  0  0  0
   10.7581   -3.1233   19.4720 N   0  0  0  0  0  0  0  0  0  0  0  0
    9.9571   -4.0573   16.8866 C   0  0  0  0  0  0  0  0  0  0  0  0
    7.6213   -6.5618   16.0087 C   0  0  0  0  0  0  0  0  0  0  0  0
   10.8583   -2.6527   20.7222 C   0  0  0  0  0  0  0  0  0  0  0  0
   10.6412   -3.5089   21.7936 C   0  0  0  0  0  0  0  0  0  0  0  0
   10.4972   -3.8968   24.1589 C   0  0  0  0  0  0  0  0  0  0  0  0
    5.9260   -8.2736   16.5517 C   0  0  0  0  0  0  0  0  0  0  0  0
    3.8816   -9.1166   17.2493 C   0  0  0  0  0  0  0  0  0  0  0  0
   10.1297   -1.6575   23.2324 C   0  0  0  0  0  0  0  0  0  0  0  0
    9.4684   -1.6929   26.7263 F   0  0  0  0  0  0  0  0  0  0  0  0
    7.7963   -7.7906   17.9837 C   0  0  0  0  0  0  0  0  0  0  0  0
   10.5884   -3.0725   16.7902 O   0  0  0  0  0  0  0  0  0  0  0  0
   10.4323   -5.3494   20.3516 C   0  0  0  0  0  0  0  0  0  0  0  0
    7.1156   -7.5454   16.8218 C   0  0  0  0  0  0  0  0  0  0  0  0
   10.3885   -4.4388   19.2773 C   0  0  0  0  0  0  0  0  0  0  0  0
    4.5160   -9.3822   15.0841 C   0  0  0  0  0  0  0  0  0  0  0  0
  1  3  4  0
  1 24  4  0
  2  6  4  0
  2 15  4  0
  3  5  4  0
  3  6  4  0
  4 21  4  0
  4 29  4  0
  5 15  4  0
  5 28  1  0
  6 16  4  0
  7 18  4  0
  7 26  4  0
  8 18  1  0
  8 19  4  0
  8 22  4  0
  9 12  4  0
  9 19  4  0
 10 12  4  0
 10 22  4  0
 11 20  4  0
 11 21  4  0
 12 23  1  0
 13 20  4  0
 13 29  4  0
 14 17  4  0
 14 28  4  0
 15 25  2  0
 16 27  4  0
 17 18  4  0
 20 27  1  0
 24 27  4  0
 26 28  4  0
M  END
$$$$

 Created by Python create_sdf_string function

 29 33  0  0  0  0  0  0  0  0999 V2000
    8.8270   -7.0288   18.4251 C   0  0  0  0  0  0  0  0  0  0  0  0
    9.1576   -4.6236   15.8860 O   0  0  0  0  0  0  0  0  0  0  0  0
    9.1509   -5.9108   17.7177 C   0  0  0  0  0  0  0  0  0  0  0  0
    3.6373   -9.5349   16.0582 N   0  0  0  0  0  0  0  0  0  0  0  0
    9.9275   -4.8001   18.0438 N   0  0  0  0  0  0  0  0  0  0  0  0
    8.5908   -5.7425   16.4412 C   0  0  0  0  0  0  0  0  0  0  0  0
   10.5993   -4.8981   21.6068 C   0  0  0  0  0  0  0  0  0  0  0  0
   10.4258   -3.0106   23.0998 C   0  0  0  0  0  0  0  0  0  0  0  0
   10.2148   -3.4364   25.4200 C   0  0  0  0  0  0  0  0  0  0  0  0
    9.7853   -1.1840   24.4927 C   0  0  0  0  0  0  0  0  0  0  0  0
    5.0276   -8.5227   17.5352 C   0  0  0  0  0  0  0  0  0  0  0  0
    9.8187   -2.0895   25.5800 C   0  0  0  0  0  0  0  0  0  0  0  0
    5.6473   -8.7216   15.3158 C   0  0  0  0  0  0  0  0  0  0  0  0
   10.7581   -3.1233   19.4720 N   0  0  0  0  0  0  0  0  0  0  0  0
    9.9571   -4.0573   16.8866 C   0  0  0  0  0  0  0  0  0  0  0  0
    7.6213   -6.5618   16.0087 C   0  0  0  0  0  0  0  0  0  0  0  0
   10.8583   -2.6527   20.7222 C   0  0  0  0  0  0  0  0  0  0  0  0
   10.6412   -3.5089   21.7936 C   0  0  0  0  0  0  0  0  0  0  0  0
   10.4972   -3.8968   24.1589 C   0  0  0  0  0  0  0  0  0  0  0  0
    5.9260   -8.2736   16.5517 C   0  0  0  0  0  0  0  0  0  0  0  0
    3.8816   -9.1166   17.2493 C   0  0  0  0  0  0  0  0  0  0  0  0
   10.1297   -1.6575   23.2324 C   0  0  0  0  0  0  0  0  0  0  0  0
    9.4684   -1.6929   26.7263 F   0  0  0  0  0  0  0  0  0  0  0  0
    7.7963   -7.7906   17.9837 C   0  0  0  0  0  0  0  0  0  0  0  0
   10.5884   -3.0725   16.7902 O   0  0  0  0  0  0  0  0  0  0  0  0
   10.4323   -5.3494   20.3516 C   0  0  0  0  0  0  0  0  0  0  0  0
    7.1156   -7.5454   16.8218 C   0  0  0  0  0  0  0  0  0  0  0  0
   10.3885   -4.4388   19.2773 C   0  0  0  0  0  0  0  0  0  0  0  0
    4.5160   -9.3822   15.0841 C   0  0  0  0  0  0  0  0  0  0  0  0
  1  3  4  0
  1 24  4  0
  2  6  4  0
  2 15  4  0
  3  5  4  0
  3  6  4  0
  4 21  4  0
  4 29  4  0
  5 15  4  0
  5 28  1  0
  6 16  4  0
  7 18  4  0
  7 26  4  0
  8 18  1  0
  8 19  4  0
  8 22  4  0
  9 12  4  0
  9 19  4  0
 10 12  4  0
 10 22  4  0
 11 20  4  0
 11 21  4  0
 12 23  1  0
 13 20  4  0
 13 29  4  0
 14 17  4  0
 14 28  4  0
 15 25  2  0
 16 27  4  0
 17 18  4  0
 20 27  1  0
 24 27  4  0
 26 28  4  0
M  END
$$$$

 Created by Python create_sdf_string function

 29 33  0  0  0  0  0  0  0  0999 V2000
    8.8270   -7.0288   18.4251 C   0  0  0  0  0  0  0  0  0  0  0  0
    9.1576   -4.6236   15.8860 O   0  0  0  0  0  0  0  0  0  0  0  0
    9.1509   -5.9108   17.7177 C   0  0  0  0  0  0  0  0  0  0  0  0
    3.6373   -9.5349   16.0582 N   0  0  0  0  0  0  0  0  0  0  0  0
    9.9275   -4.8001   18.0438 N   0  0  0  0  0  0  0  0  0  0  0  0
    8.5908   -5.7425   16.4412 C   0  0  0  0  0  0  0  0  0  0  0  0
   10.5993   -4.8981   21.6068 C   0  0  0  0  0  0  0  0  0  0  0  0
   10.4258   -3.0106   23.0998 C   0  0  0  0  0  0  0  0  0  0  0  0
   10.2148   -3.4364   25.4200 C   0  0  0  0  0  0  0  0  0  0  0  0
    9.7853   -1.1840   24.4927 C   0  0  0  0  0  0  0  0  0  0  0  0
    5.0276   -8.5227   17.5352 C   0  0  0  0  0  0  0  0  0  0  0  0
    9.8187   -2.0895   25.5800 C   0  0  0  0  0  0  0  0  0  0  0  0
    5.6473   -8.7216   15.3158 C   0  0  0  0  0  0  0  0  0  0  0  0
   10.7581   -3.1233   19.4720 N   0  0  0  0  0  0  0  0  0  0  0  0
    9.9571   -4.0573   16.8866 C   0  0  0  0  0  0  0  0  0  0  0  0
    7.6213   -6.5618   16.0087 C   0  0  0  0  0  0  0  0  0  0  0  0
   10.8583   -2.6527   20.7222 C   0  0  0  0  0  0  0  0  0  0  0  0
   10.6412   -3.5089   21.7936 C   0  0  0  0  0  0  0  0  0  0  0  0
   10.4972   -3.8968   24.1589 C   0  0  0  0  0  0  0  0  0  0  0  0
    5.9260   -8.2736   16.5517 C   0  0  0  0  0  0  0  0  0  0  0  0
    3.8816   -9.1166   17.2493 C   0  0  0  0  0  0  0  0  0  0  0  0
   10.1297   -1.6575   23.2324 C   0  0  0  0  0  0  0  0  0  0  0  0
    9.4684   -1.6929   26.7263 F   0  0  0  0  0  0  0  0  0  0  0  0
    7.7963   -7.7906   17.9837 C   0  0  0  0  0  0  0  0  0  0  0  0
   10.5884   -3.0725   16.7902 O   0  0  0  0  0  0  0  0  0  0  0  0
   10.4323   -5.3494   20.3516 C   0  0  0  0  0  0  0  0  0  0  0  0
    7.1156   -7.5454   16.8218 C   0  0  0  0  0  0  0  0  0  0  0  0
   10.3885   -4.4388   19.2773 C   0  0  0  0  0  0  0  0  0  0  0  0
    4.5160   -9.3822   15.0841 C   0  0  0  0  0  0  0  0  0  0  0  0
  1  3  4  0
  1 24  4  0
  2  6  4  0
  2 15  4  0
  3  5  4  0
  3  6  4  0
  4 21  4  0
  4 29  4  0
  5 15  4  0
  5 28  1  0
  6 16  4  0
  7 18  4  0
  7 26  4  0
  8 18  1  0
  8 19  4  0
  8 22  4  0
  9 12  4  0
  9 19  4  0
 10 12  4  0
 10 22  4  0
 11 20  4  0
 11 21  4  0
 12 23  1  0
 13 20  4  0
 13 29  4  0
 14 17  4  0
 14 28  4  0
 15 25  2  0
 16 27  4  0
 17 18  4  0
 20 27  1  0
 24 27  4  0
 26 28  4  0
M  END
$$$$

 Created by Python create_sdf_string function

 29 33  0  0  0  0  0  0  0  0999 V2000
    8.8270   -7.0288   18.4251 C   0  0  0  0  0  0  0  0  0  0  0  0
    9.1576   -4.6236   15.8860 O   0  0  0  0  0  0  0  0  0  0  0  0
    9.1509   -5.9108   17.7177 C   0  0  0  0  0  0  0  0  0  0  0  0
    3.6373   -9.5349   16.0582 N   0  0  0  0  0  0  0  0  0  0  0  0
    9.9275   -4.8001   18.0438 N   0  0  0  0  0  0  0  0  0  0  0  0
    8.5908   -5.7425   16.4412 C   0  0  0  0  0  0  0  0  0  0  0  0
   10.5993   -4.8981   21.6068 C   0  0  0  0  0  0  0  0  0  0  0  0
   10.4258   -3.0106   23.0998 C   0  0  0  0  0  0  0  0  0  0  0  0
   10.2148   -3.4364   25.4200 C   0  0  0  0  0  0  0  0  0  0  0  0
    9.7853   -1.1840   24.4927 C   0  0  0  0  0  0  0  0  0  0  0  0
    5.0276   -8.5227   17.5352 C   0  0  0  0  0  0  0  0  0  0  0  0
    9.8187   -2.0895   25.5800 C   0  0  0  0  0  0  0  0  0  0  0  0
    5.6473   -8.7216   15.3158 C   0  0  0  0  0  0  0  0  0  0  0  0
   10.7581   -3.1233   19.4720 N   0  0  0  0  0  0  0  0  0  0  0  0
    9.9571   -4.0573   16.8866 C   0  0  0  0  0  0  0  0  0  0  0  0
    7.6213   -6.5618   16.0087 C   0  0  0  0  0  0  0  0  0  0  0  0
   10.8583   -2.6527   20.7222 C   0  0  0  0  0  0  0  0  0  0  0  0
   10.6412   -3.5089   21.7936 C   0  0  0  0  0  0  0  0  0  0  0  0
   10.4972   -3.8968   24.1589 C   0  0  0  0  0  0  0  0  0  0  0  0
    5.9260   -8.2736   16.5517 C   0  0  0  0  0  0  0  0  0  0  0  0
    3.8816   -9.1166   17.2493 C   0  0  0  0  0  0  0  0  0  0  0  0
   10.1297   -1.6575   23.2324 C   0  0  0  0  0  0  0  0  0  0  0  0
    9.4684   -1.6929   26.7263 F   0  0  0  0  0  0  0  0  0  0  0  0
    7.7963   -7.7906   17.9837 C   0  0  0  0  0  0  0  0  0  0  0  0
   10.5884   -3.0725   16.7902 O   0  0  0  0  0  0  0  0  0  0  0  0
   10.4323   -5.3494   20.3516 C   0  0  0  0  0  0  0  0  0  0  0  0
    7.1156   -7.5454   16.8218 C   0  0  0  0  0  0  0  0  0  0  0  0
   10.3885   -4.4388   19.2773 C   0  0  0  0  0  0  0  0  0  0  0  0
    4.5160   -9.3822   15.0841 C   0  0  0  0  0  0  0  0  0  0  0  0
  1  3  4  0
  1 24  4  0
  2  6  4  0
  2 15  4  0
  3  5  4  0
  3  6  4  0
  4 21  4  0
  4 29  4  0
  5 15  4  0
  5 28  1  0
  6 16  4  0
  7 18  4  0
  7 26  4  0
  8 18  1  0
  8 19  4  0
  8 22  4  0
  9 12  4  0
  9 19  4  0
 10 12  4  0
 10 22  4  0
 11 20  4  0
 11 21  4  0
 12 23  1  0
 13 20  4  0
 13 29  4  0
 14 17  4  0
 14 28  4  0
 15 25  2  0
 16 27  4  0
 17 18  4  0
 20 27  1  0
 24 27  4  0
 26 28  4  0
M  END
$$$$

 Created by Python create_sdf_string function

 29 33  0  0  0  0  0  0  0  0999 V2000
    8.8270   -7.0288   18.4251 C   0  0  0  0  0  0  0  0  0  0  0  0
    9.1576   -4.6236   15.8860 O   0  0  0  0  0  0  0  0  0  0  0  0
    9.1509   -5.9108   17.7177 C   0  0  0  0  0  0  0  0  0  0  0  0
    3.6373   -9.5349   16.0582 N   0  0  0  0  0  0  0  0  0  0  0  0
    9.9275   -4.8001   18.0438 N   0  0  0  0  0  0  0  0  0  0  0  0
    8.5908   -5.7425   16.4412 C   0  0  0  0  0  0  0  0  0  0  0  0
   10.5993   -4.8981   21.6068 C   0  0  0  0  0  0  0  0  0  0  0  0
   10.4258   -3.0106   23.0998 C   0  0  0  0  0  0  0  0  0  0  0  0
   10.2148   -3.4364   25.4200 C   0  0  0  0  0  0  0  0  0  0  0  0
    9.7853   -1.1840   24.4927 C   0  0  0  0  0  0  0  0  0  0  0  0
    5.0276   -8.5227   17.5352 C   0  0  0  0  0  0  0  0  0  0  0  0
    9.8187   -2.0895   25.5800 C   0  0  0  0  0  0  0  0  0  0  0  0
    5.6473   -8.7216   15.3158 C   0  0  0  0  0  0  0  0  0  0  0  0
   10.7581   -3.1233   19.4720 N   0  0  0  0  0  0  0  0  0  0  0  0
    9.9571   -4.0573   16.8866 C   0  0  0  0  0  0  0  0  0  0  0  0
    7.6213   -6.5618   16.0087 C   0  0  0  0  0  0  0  0  0  0  0  0
   10.8583   -2.6527   20.7222 C   0  0  0  0  0  0  0  0  0  0  0  0
   10.6412   -3.5089   21.7936 C   0  0  0  0  0  0  0  0  0  0  0  0
   10.4972   -3.8968   24.1589 C   0  0  0  0  0  0  0  0  0  0  0  0
    5.9260   -8.2736   16.5517 C   0  0  0  0  0  0  0  0  0  0  0  0
    3.8816   -9.1166   17.2493 C   0  0  0  0  0  0  0  0  0  0  0  0
   10.1297   -1.6575   23.2324 C   0  0  0  0  0  0  0  0  0  0  0  0
    9.4684   -1.6929   26.7263 F   0  0  0  0  0  0  0  0  0  0  0  0
    7.7963   -7.7906   17.9837 C   0  0  0  0  0  0  0  0  0  0  0  0
   10.5884   -3.0725   16.7902 O   0  0  0  0  0  0  0  0  0  0  0  0
   10.4323   -5.3494   20.3516 C   0  0  0  0  0  0  0  0  0  0  0  0
    7.1156   -7.5454   16.8218 C   0  0  0  0  0  0  0  0  0  0  0  0
   10.3885   -4.4388   19.2773 C   0  0  0  0  0  0  0  0  0  0  0  0
    4.5160   -9.3822   15.0841 C   0  0  0  0  0  0  0  0  0  0  0  0
  1  3  4  0
  1 24  4  0
  2  6  4  0
  2 15  4  0
  3  5  4  0
  3  6  4  0
  4 21  4  0
  4 29  4  0
  5 15  4  0
  5 28  1  0
  6 16  4  0
  7 18  4  0
  7 26  4  0
  8 18  1  0
  8 19  4  0
  8 22  4  0
  9 12  4  0
  9 19  4  0
 10 12  4  0
 10 22  4  0
 11 20  4  0
 11 21  4  0
 12 23  1  0
 13 20  4  0
 13 29  4  0
 14 17  4  0
 14 28  4  0
 15 25  2  0
 16 27  4  0
 17 18  4  0
 20 27  1  0
 24 27  4  0
 26 28  4  0
M  END
$$$$

 Created by Python create_sdf_string function

 29 33  0  0  0  0  0  0  0  0999 V2000
    8.8270   -7.0288   18.4251 C   0  0  0  0  0  0  0  0  0  0  0  0
    9.1576   -4.6236   15.8860 O   0  0  0  0  0  0  0  0  0  0  0  0
    9.1509   -5.9108   17.7177 C   0  0  0  0  0  0  0  0  0  0  0  0
    3.6373   -9.5349   16.0582 N   0  0  0  0  0  0  0  0  0  0  0  0
    9.9275   -4.8001   18.0438 N   0  0  0  0  0  0  0  0  0  0  0  0
    8.5908   -5.7425   16.4412 C   0  0  0  0  0  0  0  0  0  0  0  0
   10.5993   -4.8981   21.6068 C   0  0  0  0  0  0  0  0  0  0  0  0
   10.4258   -3.0106   23.0998 C   0  0  0  0  0  0  0  0  0  0  0  0
   10.2148   -3.4364   25.4200 C   0  0  0  0  0  0  0  0  0  0  0  0
    9.7853   -1.1840   24.4927 C   0  0  0  0  0  0  0  0  0  0  0  0
    5.0276   -8.5227   17.5352 C   0  0  0  0  0  0  0  0  0  0  0  0
    9.8187   -2.0895   25.5800 C   0  0  0  0  0  0  0  0  0  0  0  0
    5.6473   -8.7216   15.3158 C   0  0  0  0  0  0  0  0  0  0  0  0
   10.7581   -3.1233   19.4720 N   0  0  0  0  0  0  0  0  0  0  0  0
    9.9571   -4.0573   16.8866 C   0  0  0  0  0  0  0  0  0  0  0  0
    7.6213   -6.5618   16.0087 C   0  0  0  0  0  0  0  0  0  0  0  0
   10.8583   -2.6527   20.7222 C   0  0  0  0  0  0  0  0  0  0  0  0
   10.6412   -3.5089   21.7936 C   0  0  0  0  0  0  0  0  0  0  0  0
   10.4972   -3.8968   24.1589 C   0  0  0  0  0  0  0  0  0  0  0  0
    5.9260   -8.2736   16.5517 C   0  0  0  0  0  0  0  0  0  0  0  0
    3.8816   -9.1166   17.2493 C   0  0  0  0  0  0  0  0  0  0  0  0
   10.1297   -1.6575   23.2324 C   0  0  0  0  0  0  0  0  0  0  0  0
    9.4684   -1.6929   26.7263 F   0  0  0  0  0  0  0  0  0  0  0  0
    7.7963   -7.7906   17.9837 C   0  0  0  0  0  0  0  0  0  0  0  0
   10.5884   -3.0725   16.7902 O   0  0  0  0  0  0  0  0  0  0  0  0
   10.4323   -5.3494   20.3516 C   0  0  0  0  0  0  0  0  0  0  0  0
    7.1156   -7.5454   16.8218 C   0  0  0  0  0  0  0  0  0  0  0  0
   10.3885   -4.4388   19.2773 C   0  0  0  0  0  0  0  0  0  0  0  0
    4.5160   -9.3822   15.0841 C   0  0  0  0  0  0  0  0  0  0  0  0
  1  3  4  0
  1 24  4  0
  2  6  4  0
  2 15  4  0
  3  5  4  0
  3  6  4  0
  4 21  4  0
  4 29  4  0
  5 15  4  0
  5 28  1  0
  6 16  4  0
  7 18  4  0
  7 26  4  0
  8 18  1  0
  8 19  4  0
  8 22  4  0
  9 12  4  0
  9 19  4  0
 10 12  4  0
 10 22  4  0
 11 20  4  0
 11 21  4  0
 12 23  1  0
 13 20  4  0
 13 29  4  0
 14 17  4  0
 14 28  4  0
 15 25  2  0
 16 27  4  0
 17 18  4  0
 20 27  1  0
 24 27  4  0
 26 28  4  0
M  END
$$$$

 Created by Python create_sdf_string function

 29 33  0  0  0  0  0  0  0  0999 V2000
    8.8270   -7.0288   18.4251 C   0  0  0  0  0  0  0  0  0  0  0  0
    9.1576   -4.6236   15.8860 O   0  0  0  0  0  0  0  0  0  0  0  0
    9.1509   -5.9108   17.7177 C   0  0  0  0  0  0  0  0  0  0  0  0
    3.6373   -9.5349   16.0582 N   0  0  0  0  0  0  0  0  0  0  0  0
    9.9275   -4.8001   18.0438 N   0  0  0  0  0  0  0  0  0  0  0  0
    8.5908   -5.7425   16.4412 C   0  0  0  0  0  0  0  0  0  0  0  0
   10.5993   -4.8981   21.6068 C   0  0  0  0  0  0  0  0  0  0  0  0
   10.4258   -3.0106   23.0998 C   0  0  0  0  0  0  0  0  0  0  0  0
   10.2148   -3.4364   25.4200 C   0  0  0  0  0  0  0  0  0  0  0  0
    9.7853   -1.1840   24.4927 C   0  0  0  0  0  0  0  0  0  0  0  0
    5.0276   -8.5227   17.5352 C   0  0  0  0  0  0  0  0  0  0  0  0
    9.8187   -2.0895   25.5800 C   0  0  0  0  0  0  0  0  0  0  0  0
    5.6473   -8.7216   15.3158 C   0  0  0  0  0  0  0  0  0  0  0  0
   10.7581   -3.1233   19.4720 N   0  0  0  0  0  0  0  0  0  0  0  0
    9.9571   -4.0573   16.8866 C   0  0  0  0  0  0  0  0  0  0  0  0
    7.6213   -6.5618   16.0087 C   0  0  0  0  0  0  0  0  0  0  0  0
   10.8583   -2.6527   20.7222 C   0  0  0  0  0  0  0  0  0  0  0  0
   10.6412   -3.5089   21.7936 C   0  0  0  0  0  0  0  0  0  0  0  0
   10.4972   -3.8968   24.1589 C   0  0  0  0  0  0  0  0  0  0  0  0
    5.9260   -8.2736   16.5517 C   0  0  0  0  0  0  0  0  0  0  0  0
    3.8816   -9.1166   17.2493 C   0  0  0  0  0  0  0  0  0  0  0  0
   10.1297   -1.6575   23.2324 C   0  0  0  0  0  0  0  0  0  0  0  0
    9.4684   -1.6929   26.7263 F   0  0  0  0  0  0  0  0  0  0  0  0
    7.7963   -7.7906   17.9837 C   0  0  0  0  0  0  0  0  0  0  0  0
   10.5884   -3.0725   16.7902 O   0  0  0  0  0  0  0  0  0  0  0  0
   10.4323   -5.3494   20.3516 C   0  0  0  0  0  0  0  0  0  0  0  0
    7.1156   -7.5454   16.8218 C   0  0  0  0  0  0  0  0  0  0  0  0
   10.3885   -4.4388   19.2773 C   0  0  0  0  0  0  0  0  0  0  0  0
    4.5160   -9.3822   15.0841 C   0  0  0  0  0  0  0  0  0  0  0  0
  1  3  4  0
  1 24  4  0
  2  6  4  0
  2 15  4  0
  3  5  4  0
  3  6  4  0
  4 21  4  0
  4 29  4  0
  5 15  4  0
  5 28  1  0
  6 16  4  0
  7 18  4  0
  7 26  4  0
  8 18  1  0
  8 19  4  0
  8 22  4  0
  9 12  4  0
  9 19  4  0
 10 12  4  0
 10 22  4  0
 11 20  4  0
 11 21  4  0
 12 23  1  0
 13 20  4  0
 13 29  4  0
 14 17  4  0
 14 28  4  0
 15 25  2  0
 16 27  4  0
 17 18  4  0
 20 27  1  0
 24 27  4  0
 26 28  4  0
M  END
$$$$

 Created by Python create_sdf_string function

 29 33  0  0  0  0  0  0  0  0999 V2000
    8.8270   -7.0288   18.4251 C   0  0  0  0  0  0  0  0  0  0  0  0
    9.1576   -4.6236   15.8860 O   0  0  0  0  0  0  0  0  0  0  0  0
    9.1509   -5.9108   17.7177 C   0  0  0  0  0  0  0  0  0  0  0  0
    3.6373   -9.5349   16.0582 N   0  0  0  0  0  0  0  0  0  0  0  0
    9.9275   -4.8001   18.0438 N   0  0  0  0  0  0  0  0  0  0  0  0
    8.5908   -5.7425   16.4412 C   0  0  0  0  0  0  0  0  0  0  0  0
   10.5993   -4.8981   21.6068 C   0  0  0  0  0  0  0  0  0  0  0  0
   10.4258   -3.0106   23.0998 C   0  0  0  0  0  0  0  0  0  0  0  0
   10.2148   -3.4364   25.4200 C   0  0  0  0  0  0  0  0  0  0  0  0
    9.7853   -1.1840   24.4927 C   0  0  0  0  0  0  0  0  0  0  0  0
    5.0276   -8.5227   17.5352 C   0  0  0  0  0  0  0  0  0  0  0  0
    9.8187   -2.0895   25.5800 C   0  0  0  0  0  0  0  0  0  0  0  0
    5.6473   -8.7216   15.3158 C   0  0  0  0  0  0  0  0  0  0  0  0
   10.7581   -3.1233   19.4720 N   0  0  0  0  0  0  0  0  0  0  0  0
    9.9571   -4.0573   16.8866 C   0  0  0  0  0  0  0  0  0  0  0  0
    7.6213   -6.5618   16.0087 C   0  0  0  0  0  0  0  0  0  0  0  0
   10.8583   -2.6527   20.7222 C   0  0  0  0  0  0  0  0  0  0  0  0
   10.6412   -3.5089   21.7936 C   0  0  0  0  0  0  0  0  0  0  0  0
   10.4972   -3.8968   24.1589 C   0  0  0  0  0  0  0  0  0  0  0  0
    5.9260   -8.2736   16.5517 C   0  0  0  0  0  0  0  0  0  0  0  0
    3.8816   -9.1166   17.2493 C   0  0  0  0  0  0  0  0  0  0  0  0
   10.1297   -1.6575   23.2324 C   0  0  0  0  0  0  0  0  0  0  0  0
    9.4684   -1.6929   26.7263 F   0  0  0  0  0  0  0  0  0  0  0  0
    7.7963   -7.7906   17.9837 C   0  0  0  0  0  0  0  0  0  0  0  0
   10.5884   -3.0725   16.7902 O   0  0  0  0  0  0  0  0  0  0  0  0
   10.4323   -5.3494   20.3516 C   0  0  0  0  0  0  0  0  0  0  0  0
    7.1156   -7.5454   16.8218 C   0  0  0  0  0  0  0  0  0  0  0  0
   10.3885   -4.4388   19.2773 C   0  0  0  0  0  0  0  0  0  0  0  0
    4.5160   -9.3822   15.0841 C   0  0  0  0  0  0  0  0  0  0  0  0
  1  3  4  0
  1 24  4  0
  2  6  4  0
  2 15  4  0
  3  5  4  0
  3  6  4  0
  4 21  4  0
  4 29  4  0
  5 15  4  0
  5 28  1  0
  6 16  4  0
  7 18  4  0
  7 26  4  0
  8 18  1  0
  8 19  4  0
  8 22  4  0
  9 12  4  0
  9 19  4  0
 10 12  4  0
 10 22  4  0
 11 20  4  0
 11 21  4  0
 12 23  1  0
 13 20  4  0
 13 29  4  0
 14 17  4  0
 14 28  4  0
 15 25  2  0
 16 27  4  0
 17 18  4  0
 20 27  1  0
 24 27  4  0
 26 28  4  0
M  END
$$$$

 Created by Python create_sdf_string function

 29 33  0  0  0  0  0  0  0  0999 V2000
    8.8270   -7.0288   18.4251 C   0  0  0  0  0  0  0  0  0  0  0  0
    9.1576   -4.6236   15.8860 O   0  0  0  0  0  0  0  0  0  0  0  0
    9.1509   -5.9108   17.7177 C   0  0  0  0  0  0  0  0  0  0  0  0
    3.6373   -9.5349   16.0582 N   0  0  0  0  0  0  0  0  0  0  0  0
    9.9275   -4.8001   18.0438 N   0  0  0  0  0  0  0  0  0  0  0  0
    8.5908   -5.7425   16.4412 C   0  0  0  0  0  0  0  0  0  0  0  0
   10.5993   -4.8981   21.6068 C   0  0  0  0  0  0  0  0  0  0  0  0
   10.4258   -3.0106   23.0998 C   0  0  0  0  0  0  0  0  0  0  0  0
   10.2148   -3.4364   25.4200 C   0  0  0  0  0  0  0  0  0  0  0  0
    9.7853   -1.1840   24.4927 C   0  0  0  0  0  0  0  0  0  0  0  0
    5.0276   -8.5227   17.5352 C   0  0  0  0  0  0  0  0  0  0  0  0
    9.8187   -2.0895   25.5800 C   0  0  0  0  0  0  0  0  0  0  0  0
    5.6473   -8.7216   15.3158 C   0  0  0  0  0  0  0  0  0  0  0  0
   10.7581   -3.1233   19.4720 N   0  0  0  0  0  0  0  0  0  0  0  0
    9.9571   -4.0573   16.8866 C   0  0  0  0  0  0  0  0  0  0  0  0
    7.6213   -6.5618   16.0087 C   0  0  0  0  0  0  0  0  0  0  0  0
   10.8583   -2.6527   20.7222 C   0  0  0  0  0  0  0  0  0  0  0  0
   10.6412   -3.5089   21.7936 C   0  0  0  0  0  0  0  0  0  0  0  0
   10.4972   -3.8968   24.1589 C   0  0  0  0  0  0  0  0  0  0  0  0
    5.9260   -8.2736   16.5517 C   0  0  0  0  0  0  0  0  0  0  0  0
    3.8816   -9.1166   17.2493 C   0  0  0  0  0  0  0  0  0  0  0  0
   10.1297   -1.6575   23.2324 C   0  0  0  0  0  0  0  0  0  0  0  0
    9.4684   -1.6929   26.7263 F   0  0  0  0  0  0  0  0  0  0  0  0
    7.7963   -7.7906   17.9837 C   0  0  0  0  0  0  0  0  0  0  0  0
   10.5884   -3.0725   16.7902 O   0  0  0  0  0  0  0  0  0  0  0  0
   10.4323   -5.3494   20.3516 C   0  0  0  0  0  0  0  0  0  0  0  0
    7.1156   -7.5454   16.8218 C   0  0  0  0  0  0  0  0  0  0  0  0
   10.3885   -4.4388   19.2773 C   0  0  0  0  0  0  0  0  0  0  0  0
    4.5160   -9.3822   15.0841 C   0  0  0  0  0  0  0  0  0  0  0  0
  1  3  4  0
  1 24  4  0
  2  6  4  0
  2 15  4  0
  3  5  4  0
  3  6  4  0
  4 21  4  0
  4 29  4  0
  5 15  4  0
  5 28  1  0
  6 16  4  0
  7 18  4  0
  7 26  4  0
  8 18  1  0
  8 19  4  0
  8 22  4  0
  9 12  4  0
  9 19  4  0
 10 12  4  0
 10 22  4  0
 11 20  4  0
 11 21  4  0
 12 23  1  0
 13 20  4  0
 13 29  4  0
 14 17  4  0
 14 28  4  0
 15 25  2  0
 16 27  4  0
 17 18  4  0
 20 27  1  0
 24 27  4  0
 26 28  4  0
M  END
$$$$

 Created by Python create_sdf_string function

 29 33  0  0  0  0  0  0  0  0999 V2000
    8.8270   -7.0288   18.4251 C   0  0  0  0  0  0  0  0  0  0  0  0
    9.1576   -4.6236   15.8860 O   0  0  0  0  0  0  0  0  0  0  0  0
    9.1509   -5.9108   17.7177 C   0  0  0  0  0  0  0  0  0  0  0  0
    3.6373   -9.5349   16.0582 N   0  0  0  0  0  0  0  0  0  0  0  0
    9.9275   -4.8001   18.0438 N   0  0  0  0  0  0  0  0  0  0  0  0
    8.5908   -5.7425   16.4412 C   0  0  0  0  0  0  0  0  0  0  0  0
   10.5993   -4.8981   21.6068 C   0  0  0  0  0  0  0  0  0  0  0  0
   10.4258   -3.0106   23.0998 C   0  0  0  0  0  0  0  0  0  0  0  0
   10.2148   -3.4364   25.4200 C   0  0  0  0  0  0  0  0  0  0  0  0
    9.7853   -1.1840   24.4927 C   0  0  0  0  0  0  0  0  0  0  0  0
    5.0276   -8.5227   17.5352 C   0  0  0  0  0  0  0  0  0  0  0  0
    9.8187   -2.0895   25.5800 C   0  0  0  0  0  0  0  0  0  0  0  0
    5.6473   -8.7216   15.3158 C   0  0  0  0  0  0  0  0  0  0  0  0
   10.7581   -3.1233   19.4720 N   0  0  0  0  0  0  0  0  0  0  0  0
    9.9571   -4.0573   16.8866 C   0  0  0  0  0  0  0  0  0  0  0  0
    7.6213   -6.5618   16.0087 C   0  0  0  0  0  0  0  0  0  0  0  0
   10.8583   -2.6527   20.7222 C   0  0  0  0  0  0  0  0  0  0  0  0
   10.6412   -3.5089   21.7936 C   0  0  0  0  0  0  0  0  0  0  0  0
   10.4972   -3.8968   24.1589 C   0  0  0  0  0  0  0  0  0  0  0  0
    5.9260   -8.2736   16.5517 C   0  0  0  0  0  0  0  0  0  0  0  0
    3.8816   -9.1166   17.2493 C   0  0  0  0  0  0  0  0  0  0  0  0
   10.1297   -1.6575   23.2324 C   0  0  0  0  0  0  0  0  0  0  0  0
    9.4684   -1.6929   26.7263 F   0  0  0  0  0  0  0  0  0  0  0  0
    7.7963   -7.7906   17.9837 C   0  0  0  0  0  0  0  0  0  0  0  0
   10.5884   -3.0725   16.7902 O   0  0  0  0  0  0  0  0  0  0  0  0
   10.4323   -5.3494   20.3516 C   0  0  0  0  0  0  0  0  0  0  0  0
    7.1156   -7.5454   16.8218 C   0  0  0  0  0  0  0  0  0  0  0  0
   10.3885   -4.4388   19.2773 C   0  0  0  0  0  0  0  0  0  0  0  0
    4.5160   -9.3822   15.0841 C   0  0  0  0  0  0  0  0  0  0  0  0
  1  3  4  0
  1 24  4  0
  2  6  4  0
  2 15  4  0
  3  5  4  0
  3  6  4  0
  4 21  4  0
  4 29  4  0
  5 15  4  0
  5 28  1  0
  6 16  4  0
  7 18  4  0
  7 26  4  0
  8 18  1  0
  8 19  4  0
  8 22  4  0
  9 12  4  0
  9 19  4  0
 10 12  4  0
 10 22  4  0
 11 20  4  0
 11 21  4  0
 12 23  1  0
 13 20  4  0
 13 29  4  0
 14 17  4  0
 14 28  4  0
 15 25  2  0
 16 27  4  0
 17 18  4  0
 20 27  1  0
 24 27  4  0
 26 28  4  0
M  END
$$$$

 Created by Python create_sdf_string function

 29 33  0  0  0  0  0  0  0  0999 V2000
    8.8270   -7.0288   18.4251 C   0  0  0  0  0  0  0  0  0  0  0  0
    9.1576   -4.6236   15.8860 O   0  0  0  0  0  0  0  0  0  0  0  0
    9.1509   -5.9108   17.7177 C   0  0  0  0  0  0  0  0  0  0  0  0
    3.6373   -9.5349   16.0582 N   0  0  0  0  0  0  0  0  0  0  0  0
    9.9275   -4.8001   18.0438 N   0  0  0  0  0  0  0  0  0  0  0  0
    8.5908   -5.7425   16.4412 C   0  0  0  0  0  0  0  0  0  0  0  0
   10.5993   -4.8981   21.6068 C   0  0  0  0  0  0  0  0  0  0  0  0
   10.4258   -3.0106   23.0998 C   0  0  0  0  0  0  0  0  0  0  0  0
   10.2148   -3.4364   25.4200 C   0  0  0  0  0  0  0  0  0  0  0  0
    9.7853   -1.1840   24.4927 C   0  0  0  0  0  0  0  0  0  0  0  0
    5.0276   -8.5227   17.5352 C   0  0  0  0  0  0  0  0  0  0  0  0
    9.8187   -2.0895   25.5800 C   0  0  0  0  0  0  0  0  0  0  0  0
    5.6473   -8.7216   15.3158 C   0  0  0  0  0  0  0  0  0  0  0  0
   10.7581   -3.1233   19.4720 N   0  0  0  0  0  0  0  0  0  0  0  0
    9.9571   -4.0573   16.8866 C   0  0  0  0  0  0  0  0  0  0  0  0
    7.6213   -6.5618   16.0087 C   0  0  0  0  0  0  0  0  0  0  0  0
   10.8583   -2.6527   20.7222 C   0  0  0  0  0  0  0  0  0  0  0  0
   10.6412   -3.5089   21.7936 C   0  0  0  0  0  0  0  0  0  0  0  0
   10.4972   -3.8968   24.1589 C   0  0  0  0  0  0  0  0  0  0  0  0
    5.9260   -8.2736   16.5517 C   0  0  0  0  0  0  0  0  0  0  0  0
    3.8816   -9.1166   17.2493 C   0  0  0  0  0  0  0  0  0  0  0  0
   10.1297   -1.6575   23.2324 C   0  0  0  0  0  0  0  0  0  0  0  0
    9.4684   -1.6929   26.7263 F   0  0  0  0  0  0  0  0  0  0  0  0
    7.7963   -7.7906   17.9837 C   0  0  0  0  0  0  0  0  0  0  0  0
   10.5884   -3.0725   16.7902 O   0  0  0  0  0  0  0  0  0  0  0  0
   10.4323   -5.3494   20.3516 C   0  0  0  0  0  0  0  0  0  0  0  0
    7.1156   -7.5454   16.8218 C   0  0  0  0  0  0  0  0  0  0  0  0
   10.3885   -4.4388   19.2773 C   0  0  0  0  0  0  0  0  0  0  0  0
    4.5160   -9.3822   15.0841 C   0  0  0  0  0  0  0  0  0  0  0  0
  1  3  4  0
  1 24  4  0
  2  6  4  0
  2 15  4  0
  3  5  4  0
  3  6  4  0
  4 21  4  0
  4 29  4  0
  5 15  4  0
  5 28  1  0
  6 16  4  0
  7 18  4  0
  7 26  4  0
  8 18  1  0
  8 19  4  0
  8 22  4  0
  9 12  4  0
  9 19  4  0
 10 12  4  0
 10 22  4  0
 11 20  4  0
 11 21  4  0
 12 23  1  0
 13 20  4  0
 13 29  4  0
 14 17  4  0
 14 28  4  0
 15 25  2  0
 16 27  4  0
 17 18  4  0
 20 27  1  0
 24 27  4  0
 26 28  4  0
M  END
$$$$

 Created by Python create_sdf_string function

 29 33  0  0  0  0  0  0  0  0999 V2000
    8.8270   -7.0288   18.4251 C   0  0  0  0  0  0  0  0  0  0  0  0
    9.1576   -4.6236   15.8860 O   0  0  0  0  0  0  0  0  0  0  0  0
    9.1509   -5.9108   17.7177 C   0  0  0  0  0  0  0  0  0  0  0  0
    3.6373   -9.5349   16.0582 N   0  0  0  0  0  0  0  0  0  0  0  0
    9.9275   -4.8001   18.0438 N   0  0  0  0  0  0  0  0  0  0  0  0
    8.5908   -5.7425   16.4412 C   0  0  0  0  0  0  0  0  0  0  0  0
   10.5993   -4.8981   21.6068 C   0  0  0  0  0  0  0  0  0  0  0  0
   10.4258   -3.0106   23.0998 C   0  0  0  0  0  0  0  0  0  0  0  0
   10.2148   -3.4364   25.4200 C   0  0  0  0  0  0  0  0  0  0  0  0
    9.7853   -1.1840   24.4927 C   0  0  0  0  0  0  0  0  0  0  0  0
    5.0276   -8.5227   17.5352 C   0  0  0  0  0  0  0  0  0  0  0  0
    9.8187   -2.0895   25.5800 C   0  0  0  0  0  0  0  0  0  0  0  0
    5.6473   -8.7216   15.3158 C   0  0  0  0  0  0  0  0  0  0  0  0
   10.7581   -3.1233   19.4720 N   0  0  0  0  0  0  0  0  0  0  0  0
    9.9571   -4.0573   16.8866 C   0  0  0  0  0  0  0  0  0  0  0  0
    7.6213   -6.5618   16.0087 C   0  0  0  0  0  0  0  0  0  0  0  0
   10.8583   -2.6527   20.7222 C   0  0  0  0  0  0  0  0  0  0  0  0
   10.6412   -3.5089   21.7936 C   0  0  0  0  0  0  0  0  0  0  0  0
   10.4972   -3.8968   24.1589 C   0  0  0  0  0  0  0  0  0  0  0  0
    5.9260   -8.2736   16.5517 C   0  0  0  0  0  0  0  0  0  0  0  0
    3.8816   -9.1166   17.2493 C   0  0  0  0  0  0  0  0  0  0  0  0
   10.1297   -1.6575   23.2324 C   0  0  0  0  0  0  0  0  0  0  0  0
    9.4684   -1.6929   26.7263 F   0  0  0  0  0  0  0  0  0  0  0  0
    7.7963   -7.7906   17.9837 C   0  0  0  0  0  0  0  0  0  0  0  0
   10.5884   -3.0725   16.7902 O   0  0  0  0  0  0  0  0  0  0  0  0
   10.4323   -5.3494   20.3516 C   0  0  0  0  0  0  0  0  0  0  0  0
    7.1156   -7.5454   16.8218 C   0  0  0  0  0  0  0  0  0  0  0  0
   10.3885   -4.4388   19.2773 C   0  0  0  0  0  0  0  0  0  0  0  0
    4.5160   -9.3822   15.0841 C   0  0  0  0  0  0  0  0  0  0  0  0
  1  3  4  0
  1 24  4  0
  2  6  4  0
  2 15  4  0
  3  5  4  0
  3  6  4  0
  4 21  4  0
  4 29  4  0
  5 15  4  0
  5 28  1  0
  6 16  4  0
  7 18  4  0
  7 26  4  0
  8 18  1  0
  8 19  4  0
  8 22  4  0
  9 12  4  0
  9 19  4  0
 10 12  4  0
 10 22  4  0
 11 20  4  0
 11 21  4  0
 12 23  1  0
 13 20  4  0
 13 29  4  0
 14 17  4  0
 14 28  4  0
 15 25  2  0
 16 27  4  0
 17 18  4  0
 20 27  1  0
 24 27  4  0
 26 28  4  0
M  END
$$$$

 Created by Python create_sdf_string function

 29 33  0  0  0  0  0  0  0  0999 V2000
    8.8270   -7.0288   18.4251 C   0  0  0  0  0  0  0  0  0  0  0  0
    9.1576   -4.6236   15.8860 O   0  0  0  0  0  0  0  0  0  0  0  0
    9.1509   -5.9108   17.7177 C   0  0  0  0  0  0  0  0  0  0  0  0
    3.6373   -9.5349   16.0582 N   0  0  0  0  0  0  0  0  0  0  0  0
    9.9275   -4.8001   18.0438 N   0  0  0  0  0  0  0  0  0  0  0  0
    8.5908   -5.7425   16.4412 C   0  0  0  0  0  0  0  0  0  0  0  0
   10.5993   -4.8981   21.6068 C   0  0  0  0  0  0  0  0  0  0  0  0
   10.4258   -3.0106   23.0998 C   0  0  0  0  0  0  0  0  0  0  0  0
   10.2148   -3.4364   25.4200 C   0  0  0  0  0  0  0  0  0  0  0  0
    9.7853   -1.1840   24.4927 C   0  0  0  0  0  0  0  0  0  0  0  0
    5.0276   -8.5227   17.5352 C   0  0  0  0  0  0  0  0  0  0  0  0
    9.8187   -2.0895   25.5800 C   0  0  0  0  0  0  0  0  0  0  0  0
    5.6473   -8.7216   15.3158 C   0  0  0  0  0  0  0  0  0  0  0  0
   10.7581   -3.1233   19.4720 N   0  0  0  0  0  0  0  0  0  0  0  0
    9.9571   -4.0573   16.8866 C   0  0  0  0  0  0  0  0  0  0  0  0
    7.6213   -6.5618   16.0087 C   0  0  0  0  0  0  0  0  0  0  0  0
   10.8583   -2.6527   20.7222 C   0  0  0  0  0  0  0  0  0  0  0  0
   10.6412   -3.5089   21.7936 C   0  0  0  0  0  0  0  0  0  0  0  0
   10.4972   -3.8968   24.1589 C   0  0  0  0  0  0  0  0  0  0  0  0
    5.9260   -8.2736   16.5517 C   0  0  0  0  0  0  0  0  0  0  0  0
    3.8816   -9.1166   17.2493 C   0  0  0  0  0  0  0  0  0  0  0  0
   10.1297   -1.6575   23.2324 C   0  0  0  0  0  0  0  0  0  0  0  0
    9.4684   -1.6929   26.7263 F   0  0  0  0  0  0  0  0  0  0  0  0
    7.7963   -7.7906   17.9837 C   0  0  0  0  0  0  0  0  0  0  0  0
   10.5884   -3.0725   16.7902 O   0  0  0  0  0  0  0  0  0  0  0  0
   10.4323   -5.3494   20.3516 C   0  0  0  0  0  0  0  0  0  0  0  0
    7.1156   -7.5454   16.8218 C   0  0  0  0  0  0  0  0  0  0  0  0
   10.3885   -4.4388   19.2773 C   0  0  0  0  0  0  0  0  0  0  0  0
    4.5160   -9.3822   15.0841 C   0  0  0  0  0  0  0  0  0  0  0  0
  1  3  4  0
  1 24  4  0
  2  6  4  0
  2 15  4  0
  3  5  4  0
  3  6  4  0
  4 21  4  0
  4 29  4  0
  5 15  4  0
  5 28  1  0
  6 16  4  0
  7 18  4  0
  7 26  4  0
  8 18  1  0
  8 19  4  0
  8 22  4  0
  9 12  4  0
  9 19  4  0
 10 12  4  0
 10 22  4  0
 11 20  4  0
 11 21  4  0
 12 23  1  0
 13 20  4  0
 13 29  4  0
 14 17  4  0
 14 28  4  0
 15 25  2  0
 16 27  4  0
 17 18  4  0
 20 27  1  0
 24 27  4  0
 26 28  4  0
M  END
$$$$

 Created by Python create_sdf_string function

 29 33  0  0  0  0  0  0  0  0999 V2000
    8.8270   -7.0288   18.4251 C   0  0  0  0  0  0  0  0  0  0  0  0
    9.1576   -4.6236   15.8860 O   0  0  0  0  0  0  0  0  0  0  0  0
    9.1509   -5.9108   17.7177 C   0  0  0  0  0  0  0  0  0  0  0  0
    3.6373   -9.5349   16.0582 N   0  0  0  0  0  0  0  0  0  0  0  0
    9.9275   -4.8001   18.0438 N   0  0  0  0  0  0  0  0  0  0  0  0
    8.5908   -5.7425   16.4412 C   0  0  0  0  0  0  0  0  0  0  0  0
   10.5993   -4.8981   21.6068 C   0  0  0  0  0  0  0  0  0  0  0  0
   10.4258   -3.0106   23.0998 C   0  0  0  0  0  0  0  0  0  0  0  0
   10.2148   -3.4364   25.4200 C   0  0  0  0  0  0  0  0  0  0  0  0
    9.7853   -1.1840   24.4927 C   0  0  0  0  0  0  0  0  0  0  0  0
    5.0276   -8.5227   17.5352 C   0  0  0  0  0  0  0  0  0  0  0  0
    9.8187   -2.0895   25.5800 C   0  0  0  0  0  0  0  0  0  0  0  0
    5.6473   -8.7216   15.3158 C   0  0  0  0  0  0  0  0  0  0  0  0
   10.7581   -3.1233   19.4720 N   0  0  0  0  0  0  0  0  0  0  0  0
    9.9571   -4.0573   16.8866 C   0  0  0  0  0  0  0  0  0  0  0  0
    7.6213   -6.5618   16.0087 C   0  0  0  0  0  0  0  0  0  0  0  0
   10.8583   -2.6527   20.7222 C   0  0  0  0  0  0  0  0  0  0  0  0
   10.6412   -3.5089   21.7936 C   0  0  0  0  0  0  0  0  0  0  0  0
   10.4972   -3.8968   24.1589 C   0  0  0  0  0  0  0  0  0  0  0  0
    5.9260   -8.2736   16.5517 C   0  0  0  0  0  0  0  0  0  0  0  0
    3.8816   -9.1166   17.2493 C   0  0  0  0  0  0  0  0  0  0  0  0
   10.1297   -1.6575   23.2324 C   0  0  0  0  0  0  0  0  0  0  0  0
    9.4684   -1.6929   26.7263 F   0  0  0  0  0  0  0  0  0  0  0  0
    7.7963   -7.7906   17.9837 C   0  0  0  0  0  0  0  0  0  0  0  0
   10.5884   -3.0725   16.7902 O   0  0  0  0  0  0  0  0  0  0  0  0
   10.4323   -5.3494   20.3516 C   0  0  0  0  0  0  0  0  0  0  0  0
    7.1156   -7.5454   16.8218 C   0  0  0  0  0  0  0  0  0  0  0  0
   10.3885   -4.4388   19.2773 C   0  0  0  0  0  0  0  0  0  0  0  0
    4.5160   -9.3822   15.0841 C   0  0  0  0  0  0  0  0  0  0  0  0
  1  3  4  0
  1 24  4  0
  2  6  4  0
  2 15  4  0
  3  5  4  0
  3  6  4  0
  4 21  4  0
  4 29  4  0
  5 15  4  0
  5 28  1  0
  6 16  4  0
  7 18  4  0
  7 26  4  0
  8 18  1  0
  8 19  4  0
  8 22  4  0
  9 12  4  0
  9 19  4  0
 10 12  4  0
 10 22  4  0
 11 20  4  0
 11 21  4  0
 12 23  1  0
 13 20  4  0
 13 29  4  0
 14 17  4  0
 14 28  4  0
 15 25  2  0
 16 27  4  0
 17 18  4  0
 20 27  1  0
 24 27  4  0
 26 28  4  0
M  END
$$$$

 Created by Python create_sdf_string function

 29 33  0  0  0  0  0  0  0  0999 V2000
    8.8270   -7.0288   18.4251 C   0  0  0  0  0  0  0  0  0  0  0  0
    9.1576   -4.6236   15.8860 O   0  0  0  0  0  0  0  0  0  0  0  0
    9.1509   -5.9108   17.7177 C   0  0  0  0  0  0  0  0  0  0  0  0
    3.6373   -9.5349   16.0582 N   0  0  0  0  0  0  0  0  0  0  0  0
    9.9275   -4.8001   18.0438 N   0  0  0  0  0  0  0  0  0  0  0  0
    8.5908   -5.7425   16.4412 C   0  0  0  0  0  0  0  0  0  0  0  0
   10.5993   -4.8981   21.6068 C   0  0  0  0  0  0  0  0  0  0  0  0
   10.4258   -3.0106   23.0998 C   0  0  0  0  0  0  0  0  0  0  0  0
   10.2148   -3.4364   25.4200 C   0  0  0  0  0  0  0  0  0  0  0  0
    9.7853   -1.1840   24.4927 C   0  0  0  0  0  0  0  0  0  0  0  0
    5.0276   -8.5227   17.5352 C   0  0  0  0  0  0  0  0  0  0  0  0
    9.8187   -2.0895   25.5800 C   0  0  0  0  0  0  0  0  0  0  0  0
    5.6473   -8.7216   15.3158 C   0  0  0  0  0  0  0  0  0  0  0  0
   10.7581   -3.1233   19.4720 N   0  0  0  0  0  0  0  0  0  0  0  0
    9.9571   -4.0573   16.8866 C   0  0  0  0  0  0  0  0  0  0  0  0
    7.6213   -6.5618   16.0087 C   0  0  0  0  0  0  0  0  0  0  0  0
   10.8583   -2.6527   20.7222 C   0  0  0  0  0  0  0  0  0  0  0  0
   10.6412   -3.5089   21.7936 C   0  0  0  0  0  0  0  0  0  0  0  0
   10.4972   -3.8968   24.1589 C   0  0  0  0  0  0  0  0  0  0  0  0
    5.9260   -8.2736   16.5517 C   0  0  0  0  0  0  0  0  0  0  0  0
    3.8816   -9.1166   17.2493 C   0  0  0  0  0  0  0  0  0  0  0  0
   10.1297   -1.6575   23.2324 C   0  0  0  0  0  0  0  0  0  0  0  0
    9.4684   -1.6929   26.7263 F   0  0  0  0  0  0  0  0  0  0  0  0
    7.7963   -7.7906   17.9837 C   0  0  0  0  0  0  0  0  0  0  0  0
   10.5884   -3.0725   16.7902 O   0  0  0  0  0  0  0  0  0  0  0  0
   10.4323   -5.3494   20.3516 C   0  0  0  0  0  0  0  0  0  0  0  0
    7.1156   -7.5454   16.8218 C   0  0  0  0  0  0  0  0  0  0  0  0
   10.3885   -4.4388   19.2773 C   0  0  0  0  0  0  0  0  0  0  0  0
    4.5160   -9.3822   15.0841 C   0  0  0  0  0  0  0  0  0  0  0  0
  1  3  4  0
  1 24  4  0
  2  6  4  0
  2 15  4  0
  3  5  4  0
  3  6  4  0
  4 21  4  0
  4 29  4  0
  5 15  4  0
  5 28  1  0
  6 16  4  0
  7 18  4  0
  7 26  4  0
  8 18  1  0
  8 19  4  0
  8 22  4  0
  9 12  4  0
  9 19  4  0
 10 12  4  0
 10 22  4  0
 11 20  4  0
 11 21  4  0
 12 23  1  0
 13 20  4  0
 13 29  4  0
 14 17  4  0
 14 28  4  0
 15 25  2  0
 16 27  4  0
 17 18  4  0
 20 27  1  0
 24 27  4  0
 26 28  4  0
M  END
$$$$

 Created by Python create_sdf_string function

 29 33  0  0  0  0  0  0  0  0999 V2000
    8.8270   -7.0288   18.4251 C   0  0  0  0  0  0  0  0  0  0  0  0
    9.1576   -4.6236   15.8860 O   0  0  0  0  0  0  0  0  0  0  0  0
    9.1509   -5.9108   17.7177 C   0  0  0  0  0  0  0  0  0  0  0  0
    3.6373   -9.5349   16.0582 N   0  0  0  0  0  0  0  0  0  0  0  0
    9.9275   -4.8001   18.0438 N   0  0  0  0  0  0  0  0  0  0  0  0
    8.5908   -5.7425   16.4412 C   0  0  0  0  0  0  0  0  0  0  0  0
   10.5993   -4.8981   21.6068 C   0  0  0  0  0  0  0  0  0  0  0  0
   10.4258   -3.0106   23.0998 C   0  0  0  0  0  0  0  0  0  0  0  0
   10.2148   -3.4364   25.4200 C   0  0  0  0  0  0  0  0  0  0  0  0
    9.7853   -1.1840   24.4927 C   0  0  0  0  0  0  0  0  0  0  0  0
    5.0276   -8.5227   17.5352 C   0  0  0  0  0  0  0  0  0  0  0  0
    9.8187   -2.0895   25.5800 C   0  0  0  0  0  0  0  0  0  0  0  0
    5.6473   -8.7216   15.3158 C   0  0  0  0  0  0  0  0  0  0  0  0
   10.7581   -3.1233   19.4720 N   0  0  0  0  0  0  0  0  0  0  0  0
    9.9571   -4.0573   16.8866 C   0  0  0  0  0  0  0  0  0  0  0  0
    7.6213   -6.5618   16.0087 C   0  0  0  0  0  0  0  0  0  0  0  0
   10.8583   -2.6527   20.7222 C   0  0  0  0  0  0  0  0  0  0  0  0
   10.6412   -3.5089   21.7936 C   0  0  0  0  0  0  0  0  0  0  0  0
   10.4972   -3.8968   24.1589 C   0  0  0  0  0  0  0  0  0  0  0  0
    5.9260   -8.2736   16.5517 C   0  0  0  0  0  0  0  0  0  0  0  0
    3.8816   -9.1166   17.2493 C   0  0  0  0  0  0  0  0  0  0  0  0
   10.1297   -1.6575   23.2324 C   0  0  0  0  0  0  0  0  0  0  0  0
    9.4684   -1.6929   26.7263 F   0  0  0  0  0  0  0  0  0  0  0  0
    7.7963   -7.7906   17.9837 C   0  0  0  0  0  0  0  0  0  0  0  0
   10.5884   -3.0725   16.7902 O   0  0  0  0  0  0  0  0  0  0  0  0
   10.4323   -5.3494   20.3516 C   0  0  0  0  0  0  0  0  0  0  0  0
    7.1156   -7.5454   16.8218 C   0  0  0  0  0  0  0  0  0  0  0  0
   10.3885   -4.4388   19.2773 C   0  0  0  0  0  0  0  0  0  0  0  0
    4.5160   -9.3822   15.0841 C   0  0  0  0  0  0  0  0  0  0  0  0
  1  3  4  0
  1 24  4  0
  2  6  4  0
  2 15  4  0
  3  5  4  0
  3  6  4  0
  4 21  4  0
  4 29  4  0
  5 15  4  0
  5 28  1  0
  6 16  4  0
  7 18  4  0
  7 26  4  0
  8 18  1  0
  8 19  4  0
  8 22  4  0
  9 12  4  0
  9 19  4  0
 10 12  4  0
 10 22  4  0
 11 20  4  0
 11 21  4  0
 12 23  1  0
 13 20  4  0
 13 29  4  0
 14 17  4  0
 14 28  4  0
 15 25  2  0
 16 27  4  0
 17 18  4  0
 20 27  1  0
 24 27  4  0
 26 28  4  0
M  END
$$$$

 Created by Python create_sdf_string function

 29 33  0  0  0  0  0  0  0  0999 V2000
    8.8270   -7.0288   18.4251 C   0  0  0  0  0  0  0  0  0  0  0  0
    9.1576   -4.6236   15.8860 O   0  0  0  0  0  0  0  0  0  0  0  0
    9.1509   -5.9108   17.7177 C   0  0  0  0  0  0  0  0  0  0  0  0
    3.6373   -9.5349   16.0582 N   0  0  0  0  0  0  0  0  0  0  0  0
    9.9275   -4.8001   18.0438 N   0  0  0  0  0  0  0  0  0  0  0  0
    8.5908   -5.7425   16.4412 C   0  0  0  0  0  0  0  0  0  0  0  0
   10.5993   -4.8981   21.6068 C   0  0  0  0  0  0  0  0  0  0  0  0
   10.4258   -3.0106   23.0998 C   0  0  0  0  0  0  0  0  0  0  0  0
   10.2148   -3.4364   25.4200 C   0  0  0  0  0  0  0  0  0  0  0  0
    9.7853   -1.1840   24.4927 C   0  0  0  0  0  0  0  0  0  0  0  0
    5.0276   -8.5227   17.5352 C   0  0  0  0  0  0  0  0  0  0  0  0
    9.8187   -2.0895   25.5800 C   0  0  0  0  0  0  0  0  0  0  0  0
    5.6473   -8.7216   15.3158 C   0  0  0  0  0  0  0  0  0  0  0  0
   10.7581   -3.1233   19.4720 N   0  0  0  0  0  0  0  0  0  0  0  0
    9.9571   -4.0573   16.8866 C   0  0  0  0  0  0  0  0  0  0  0  0
    7.6213   -6.5618   16.0087 C   0  0  0  0  0  0  0  0  0  0  0  0
   10.8583   -2.6527   20.7222 C   0  0  0  0  0  0  0  0  0  0  0  0
   10.6412   -3.5089   21.7936 C   0  0  0  0  0  0  0  0  0  0  0  0
   10.4972   -3.8968   24.1589 C   0  0  0  0  0  0  0  0  0  0  0  0
    5.9260   -8.2736   16.5517 C   0  0  0  0  0  0  0  0  0  0  0  0
    3.8816   -9.1166   17.2493 C   0  0  0  0  0  0  0  0  0  0  0  0
   10.1297   -1.6575   23.2324 C   0  0  0  0  0  0  0  0  0  0  0  0
    9.4684   -1.6929   26.7263 F   0  0  0  0  0  0  0  0  0  0  0  0
    7.7963   -7.7906   17.9837 C   0  0  0  0  0  0  0  0  0  0  0  0
   10.5884   -3.0725   16.7902 O   0  0  0  0  0  0  0  0  0  0  0  0
   10.4323   -5.3494   20.3516 C   0  0  0  0  0  0  0  0  0  0  0  0
    7.1156   -7.5454   16.8218 C   0  0  0  0  0  0  0  0  0  0  0  0
   10.3885   -4.4388   19.2773 C   0  0  0  0  0  0  0  0  0  0  0  0
    4.5160   -9.3822   15.0841 C   0  0  0  0  0  0  0  0  0  0  0  0
  1  3  4  0
  1 24  4  0
  2  6  4  0
  2 15  4  0
  3  5  4  0
  3  6  4  0
  4 21  4  0
  4 29  4  0
  5 15  4  0
  5 28  1  0
  6 16  4  0
  7 18  4  0
  7 26  4  0
  8 18  1  0
  8 19  4  0
  8 22  4  0
  9 12  4  0
  9 19  4  0
 10 12  4  0
 10 22  4  0
 11 20  4  0
 11 21  4  0
 12 23  1  0
 13 20  4  0
 13 29  4  0
 14 17  4  0
 14 28  4  0
 15 25  2  0
 16 27  4  0
 17 18  4  0
 20 27  1  0
 24 27  4  0
 26 28  4  0
M  END
$$$$

 Created by Python create_sdf_string function

 29 33  0  0  0  0  0  0  0  0999 V2000
    8.8270   -7.0288   18.4251 C   0  0  0  0  0  0  0  0  0  0  0  0
    9.1576   -4.6236   15.8860 O   0  0  0  0  0  0  0  0  0  0  0  0
    9.1509   -5.9108   17.7177 C   0  0  0  0  0  0  0  0  0  0  0  0
    3.6373   -9.5349   16.0582 N   0  0  0  0  0  0  0  0  0  0  0  0
    9.9275   -4.8001   18.0438 N   0  0  0  0  0  0  0  0  0  0  0  0
    8.5908   -5.7425   16.4412 C   0  0  0  0  0  0  0  0  0  0  0  0
   10.5993   -4.8981   21.6068 C   0  0  0  0  0  0  0  0  0  0  0  0
   10.4258   -3.0106   23.0998 C   0  0  0  0  0  0  0  0  0  0  0  0
   10.2148   -3.4364   25.4200 C   0  0  0  0  0  0  0  0  0  0  0  0
    9.7853   -1.1840   24.4927 C   0  0  0  0  0  0  0  0  0  0  0  0
    5.0276   -8.5227   17.5352 C   0  0  0  0  0  0  0  0  0  0  0  0
    9.8187   -2.0895   25.5800 C   0  0  0  0  0  0  0  0  0  0  0  0
    5.6473   -8.7216   15.3158 C   0  0  0  0  0  0  0  0  0  0  0  0
   10.7581   -3.1233   19.4720 N   0  0  0  0  0  0  0  0  0  0  0  0
    9.9571   -4.0573   16.8866 C   0  0  0  0  0  0  0  0  0  0  0  0
    7.6213   -6.5618   16.0087 C   0  0  0  0  0  0  0  0  0  0  0  0
   10.8583   -2.6527   20.7222 C   0  0  0  0  0  0  0  0  0  0  0  0
   10.6412   -3.5089   21.7936 C   0  0  0  0  0  0  0  0  0  0  0  0
   10.4972   -3.8968   24.1589 C   0  0  0  0  0  0  0  0  0  0  0  0
    5.9260   -8.2736   16.5517 C   0  0  0  0  0  0  0  0  0  0  0  0
    3.8816   -9.1166   17.2493 C   0  0  0  0  0  0  0  0  0  0  0  0
   10.1297   -1.6575   23.2324 C   0  0  0  0  0  0  0  0  0  0  0  0
    9.4684   -1.6929   26.7263 F   0  0  0  0  0  0  0  0  0  0  0  0
    7.7963   -7.7906   17.9837 C   0  0  0  0  0  0  0  0  0  0  0  0
   10.5884   -3.0725   16.7902 O   0  0  0  0  0  0  0  0  0  0  0  0
   10.4323   -5.3494   20.3516 C   0  0  0  0  0  0  0  0  0  0  0  0
    7.1156   -7.5454   16.8218 C   0  0  0  0  0  0  0  0  0  0  0  0
   10.3885   -4.4388   19.2773 C   0  0  0  0  0  0  0  0  0  0  0  0
    4.5160   -9.3822   15.0841 C   0  0  0  0  0  0  0  0  0  0  0  0
  1  3  4  0
  1 24  4  0
  2  6  4  0
  2 15  4  0
  3  5  4  0
  3  6  4  0
  4 21  4  0
  4 29  4  0
  5 15  4  0
  5 28  1  0
  6 16  4  0
  7 18  4  0
  7 26  4  0
  8 18  1  0
  8 19  4  0
  8 22  4  0
  9 12  4  0
  9 19  4  0
 10 12  4  0
 10 22  4  0
 11 20  4  0
 11 21  4  0
 12 23  1  0
 13 20  4  0
 13 29  4  0
 14 17  4  0
 14 28  4  0
 15 25  2  0
 16 27  4  0
 17 18  4  0
 20 27  1  0
 24 27  4  0
 26 28  4  0
M  END
$$$$

 Created by Python create_sdf_string function

 29 33  0  0  0  0  0  0  0  0999 V2000
    8.8270   -7.0288   18.4251 C   0  0  0  0  0  0  0  0  0  0  0  0
    9.1576   -4.6236   15.8860 O   0  0  0  0  0  0  0  0  0  0  0  0
    9.1509   -5.9108   17.7177 C   0  0  0  0  0  0  0  0  0  0  0  0
    3.6373   -9.5349   16.0582 N   0  0  0  0  0  0  0  0  0  0  0  0
    9.9275   -4.8001   18.0438 N   0  0  0  0  0  0  0  0  0  0  0  0
    8.5908   -5.7425   16.4412 C   0  0  0  0  0  0  0  0  0  0  0  0
   10.5993   -4.8981   21.6068 C   0  0  0  0  0  0  0  0  0  0  0  0
   10.4258   -3.0106   23.0998 C   0  0  0  0  0  0  0  0  0  0  0  0
   10.2148   -3.4364   25.4200 C   0  0  0  0  0  0  0  0  0  0  0  0
    9.7853   -1.1840   24.4927 C   0  0  0  0  0  0  0  0  0  0  0  0
    5.0276   -8.5227   17.5352 C   0  0  0  0  0  0  0  0  0  0  0  0
    9.8187   -2.0895   25.5800 C   0  0  0  0  0  0  0  0  0  0  0  0
    5.6473   -8.7216   15.3158 C   0  0  0  0  0  0  0  0  0  0  0  0
   10.7581   -3.1233   19.4720 N   0  0  0  0  0  0  0  0  0  0  0  0
    9.9571   -4.0573   16.8866 C   0  0  0  0  0  0  0  0  0  0  0  0
    7.6213   -6.5618   16.0087 C   0  0  0  0  0  0  0  0  0  0  0  0
   10.8583   -2.6527   20.7222 C   0  0  0  0  0  0  0  0  0  0  0  0
   10.6412   -3.5089   21.7936 C   0  0  0  0  0  0  0  0  0  0  0  0
   10.4972   -3.8968   24.1589 C   0  0  0  0  0  0  0  0  0  0  0  0
    5.9260   -8.2736   16.5517 C   0  0  0  0  0  0  0  0  0  0  0  0
    3.8816   -9.1166   17.2493 C   0  0  0  0  0  0  0  0  0  0  0  0
   10.1297   -1.6575   23.2324 C   0  0  0  0  0  0  0  0  0  0  0  0
    9.4684   -1.6929   26.7263 F   0  0  0  0  0  0  0  0  0  0  0  0
    7.7963   -7.7906   17.9837 C   0  0  0  0  0  0  0  0  0  0  0  0
   10.5884   -3.0725   16.7902 O   0  0  0  0  0  0  0  0  0  0  0  0
   10.4323   -5.3494   20.3516 C   0  0  0  0  0  0  0  0  0  0  0  0
    7.1156   -7.5454   16.8218 C   0  0  0  0  0  0  0  0  0  0  0  0
   10.3885   -4.4388   19.2773 C   0  0  0  0  0  0  0  0  0  0  0  0
    4.5160   -9.3822   15.0841 C   0  0  0  0  0  0  0  0  0  0  0  0
  1  3  4  0
  1 24  4  0
  2  6  4  0
  2 15  4  0
  3  5  4  0
  3  6  4  0
  4 21  4  0
  4 29  4  0
  5 15  4  0
  5 28  1  0
  6 16  4  0
  7 18  4  0
  7 26  4  0
  8 18  1  0
  8 19  4  0
  8 22  4  0
  9 12  4  0
  9 19  4  0
 10 12  4  0
 10 22  4  0
 11 20  4  0
 11 21  4  0
 12 23  1  0
 13 20  4  0
 13 29  4  0
 14 17  4  0
 14 28  4  0
 15 25  2  0
 16 27  4  0
 17 18  4  0
 20 27  1  0
 24 27  4  0
 26 28  4  0
M  END
$$$$

 Created by Python create_sdf_string function

 29 33  0  0  0  0  0  0  0  0999 V2000
    8.8270   -7.0288   18.4251 C   0  0  0  0  0  0  0  0  0  0  0  0
    9.1576   -4.6236   15.8860 O   0  0  0  0  0  0  0  0  0  0  0  0
    9.1509   -5.9108   17.7177 C   0  0  0  0  0  0  0  0  0  0  0  0
    3.6373   -9.5349   16.0582 N   0  0  0  0  0  0  0  0  0  0  0  0
    9.9275   -4.8001   18.0438 N   0  0  0  0  0  0  0  0  0  0  0  0
    8.5908   -5.7425   16.4412 C   0  0  0  0  0  0  0  0  0  0  0  0
   10.5993   -4.8981   21.6068 C   0  0  0  0  0  0  0  0  0  0  0  0
   10.4258   -3.0106   23.0998 C   0  0  0  0  0  0  0  0  0  0  0  0
   10.2148   -3.4364   25.4200 C   0  0  0  0  0  0  0  0  0  0  0  0
    9.7853   -1.1840   24.4927 C   0  0  0  0  0  0  0  0  0  0  0  0
    5.0276   -8.5227   17.5352 C   0  0  0  0  0  0  0  0  0  0  0  0
    9.8187   -2.0895   25.5800 C   0  0  0  0  0  0  0  0  0  0  0  0
    5.6473   -8.7216   15.3158 C   0  0  0  0  0  0  0  0  0  0  0  0
   10.7581   -3.1233   19.4720 N   0  0  0  0  0  0  0  0  0  0  0  0
    9.9571   -4.0573   16.8866 C   0  0  0  0  0  0  0  0  0  0  0  0
    7.6213   -6.5618   16.0087 C   0  0  0  0  0  0  0  0  0  0  0  0
   10.8583   -2.6527   20.7222 C   0  0  0  0  0  0  0  0  0  0  0  0
   10.6412   -3.5089   21.7936 C   0  0  0  0  0  0  0  0  0  0  0  0
   10.4972   -3.8968   24.1589 C   0  0  0  0  0  0  0  0  0  0  0  0
    5.9260   -8.2736   16.5517 C   0  0  0  0  0  0  0  0  0  0  0  0
    3.8816   -9.1166   17.2493 C   0  0  0  0  0  0  0  0  0  0  0  0
   10.1297   -1.6575   23.2324 C   0  0  0  0  0  0  0  0  0  0  0  0
    9.4684   -1.6929   26.7263 F   0  0  0  0  0  0  0  0  0  0  0  0
    7.7963   -7.7906   17.9837 C   0  0  0  0  0  0  0  0  0  0  0  0
   10.5884   -3.0725   16.7902 O   0  0  0  0  0  0  0  0  0  0  0  0
   10.4323   -5.3494   20.3516 C   0  0  0  0  0  0  0  0  0  0  0  0
    7.1156   -7.5454   16.8218 C   0  0  0  0  0  0  0  0  0  0  0  0
   10.3885   -4.4388   19.2773 C   0  0  0  0  0  0  0  0  0  0  0  0
    4.5160   -9.3822   15.0841 C   0  0  0  0  0  0  0  0  0  0  0  0
  1  3  4  0
  1 24  4  0
  2  6  4  0
  2 15  4  0
  3  5  4  0
  3  6  4  0
  4 21  4  0
  4 29  4  0
  5 15  4  0
  5 28  1  0
  6 16  4  0
  7 18  4  0
  7 26  4  0
  8 18  1  0
  8 19  4  0
  8 22  4  0
  9 12  4  0
  9 19  4  0
 10 12  4  0
 10 22  4  0
 11 20  4  0
 11 21  4  0
 12 23  1  0
 13 20  4  0
 13 29  4  0
 14 17  4  0
 14 28  4  0
 15 25  2  0
 16 27  4  0
 17 18  4  0
 20 27  1  0
 24 27  4  0
 26 28  4  0
M  END
$$$$

 Created by Python create_sdf_string function

 29 33  0  0  0  0  0  0  0  0999 V2000
    8.8270   -7.0288   18.4251 C   0  0  0  0  0  0  0  0  0  0  0  0
    9.1576   -4.6236   15.8860 O   0  0  0  0  0  0  0  0  0  0  0  0
    9.1509   -5.9108   17.7177 C   0  0  0  0  0  0  0  0  0  0  0  0
    3.6373   -9.5349   16.0582 N   0  0  0  0  0  0  0  0  0  0  0  0
    9.9275   -4.8001   18.0438 N   0  0  0  0  0  0  0  0  0  0  0  0
    8.5908   -5.7425   16.4412 C   0  0  0  0  0  0  0  0  0  0  0  0
   10.5993   -4.8981   21.6068 C   0  0  0  0  0  0  0  0  0  0  0  0
   10.4258   -3.0106   23.0998 C   0  0  0  0  0  0  0  0  0  0  0  0
   10.2148   -3.4364   25.4200 C   0  0  0  0  0  0  0  0  0  0  0  0
    9.7853   -1.1840   24.4927 C   0  0  0  0  0  0  0  0  0  0  0  0
    5.0276   -8.5227   17.5352 C   0  0  0  0  0  0  0  0  0  0  0  0
    9.8187   -2.0895   25.5800 C   0  0  0  0  0  0  0  0  0  0  0  0
    5.6473   -8.7216   15.3158 C   0  0  0  0  0  0  0  0  0  0  0  0
   10.7581   -3.1233   19.4720 N   0  0  0  0  0  0  0  0  0  0  0  0
    9.9571   -4.0573   16.8866 C   0  0  0  0  0  0  0  0  0  0  0  0
    7.6213   -6.5618   16.0087 C   0  0  0  0  0  0  0  0  0  0  0  0
   10.8583   -2.6527   20.7222 C   0  0  0  0  0  0  0  0  0  0  0  0
   10.6412   -3.5089   21.7936 C   0  0  0  0  0  0  0  0  0  0  0  0
   10.4972   -3.8968   24.1589 C   0  0  0  0  0  0  0  0  0  0  0  0
    5.9260   -8.2736   16.5517 C   0  0  0  0  0  0  0  0  0  0  0  0
    3.8816   -9.1166   17.2493 C   0  0  0  0  0  0  0  0  0  0  0  0
   10.1297   -1.6575   23.2324 C   0  0  0  0  0  0  0  0  0  0  0  0
    9.4684   -1.6929   26.7263 F   0  0  0  0  0  0  0  0  0  0  0  0
    7.7963   -7.7906   17.9837 C   0  0  0  0  0  0  0  0  0  0  0  0
   10.5884   -3.0725   16.7902 O   0  0  0  0  0  0  0  0  0  0  0  0
   10.4323   -5.3494   20.3516 C   0  0  0  0  0  0  0  0  0  0  0  0
    7.1156   -7.5454   16.8218 C   0  0  0  0  0  0  0  0  0  0  0  0
   10.3885   -4.4388   19.2773 C   0  0  0  0  0  0  0  0  0  0  0  0
    4.5160   -9.3822   15.0841 C   0  0  0  0  0  0  0  0  0  0  0  0
  1  3  4  0
  1 24  4  0
  2  6  4  0
  2 15  4  0
  3  5  4  0
  3  6  4  0
  4 21  4  0
  4 29  4  0
  5 15  4  0
  5 28  1  0
  6 16  4  0
  7 18  4  0
  7 26  4  0
  8 18  1  0
  8 19  4  0
  8 22  4  0
  9 12  4  0
  9 19  4  0
 10 12  4  0
 10 22  4  0
 11 20  4  0
 11 21  4  0
 12 23  1  0
 13 20  4  0
 13 29  4  0
 14 17  4  0
 14 28  4  0
 15 25  2  0
 16 27  4  0
 17 18  4  0
 20 27  1  0
 24 27  4  0
 26 28  4  0
M  END
$$$$

 Created by Python create_sdf_string function

 29 33  0  0  0  0  0  0  0  0999 V2000
    8.8270   -7.0288   18.4251 C   0  0  0  0  0  0  0  0  0  0  0  0
    9.1576   -4.6236   15.8860 O   0  0  0  0  0  0  0  0  0  0  0  0
    9.1509   -5.9108   17.7177 C   0  0  0  0  0  0  0  0  0  0  0  0
    3.6373   -9.5349   16.0582 N   0  0  0  0  0  0  0  0  0  0  0  0
    9.9275   -4.8001   18.0438 N   0  0  0  0  0  0  0  0  0  0  0  0
    8.5908   -5.7425   16.4412 C   0  0  0  0  0  0  0  0  0  0  0  0
   10.5993   -4.8981   21.6068 C   0  0  0  0  0  0  0  0  0  0  0  0
   10.4258   -3.0106   23.0998 C   0  0  0  0  0  0  0  0  0  0  0  0
   10.2148   -3.4364   25.4200 C   0  0  0  0  0  0  0  0  0  0  0  0
    9.7853   -1.1840   24.4927 C   0  0  0  0  0  0  0  0  0  0  0  0
    5.0276   -8.5227   17.5352 C   0  0  0  0  0  0  0  0  0  0  0  0
    9.8187   -2.0895   25.5800 C   0  0  0  0  0  0  0  0  0  0  0  0
    5.6473   -8.7216   15.3158 C   0  0  0  0  0  0  0  0  0  0  0  0
   10.7581   -3.1233   19.4720 N   0  0  0  0  0  0  0  0  0  0  0  0
    9.9571   -4.0573   16.8866 C   0  0  0  0  0  0  0  0  0  0  0  0
    7.6213   -6.5618   16.0087 C   0  0  0  0  0  0  0  0  0  0  0  0
   10.8583   -2.6527   20.7222 C   0  0  0  0  0  0  0  0  0  0  0  0
   10.6412   -3.5089   21.7936 C   0  0  0  0  0  0  0  0  0  0  0  0
   10.4972   -3.8968   24.1589 C   0  0  0  0  0  0  0  0  0  0  0  0
    5.9260   -8.2736   16.5517 C   0  0  0  0  0  0  0  0  0  0  0  0
    3.8816   -9.1166   17.2493 C   0  0  0  0  0  0  0  0  0  0  0  0
   10.1297   -1.6575   23.2324 C   0  0  0  0  0  0  0  0  0  0  0  0
    9.4684   -1.6929   26.7263 F   0  0  0  0  0  0  0  0  0  0  0  0
    7.7963   -7.7906   17.9837 C   0  0  0  0  0  0  0  0  0  0  0  0
   10.5884   -3.0725   16.7902 O   0  0  0  0  0  0  0  0  0  0  0  0
   10.4323   -5.3494   20.3516 C   0  0  0  0  0  0  0  0  0  0  0  0
    7.1156   -7.5454   16.8218 C   0  0  0  0  0  0  0  0  0  0  0  0
   10.3885   -4.4388   19.2773 C   0  0  0  0  0  0  0  0  0  0  0  0
    4.5160   -9.3822   15.0841 C   0  0  0  0  0  0  0  0  0  0  0  0
  1  3  4  0
  1 24  4  0
  2  6  4  0
  2 15  4  0
  3  5  4  0
  3  6  4  0
  4 21  4  0
  4 29  4  0
  5 15  4  0
  5 28  1  0
  6 16  4  0
  7 18  4  0
  7 26  4  0
  8 18  1  0
  8 19  4  0
  8 22  4  0
  9 12  4  0
  9 19  4  0
 10 12  4  0
 10 22  4  0
 11 20  4  0
 11 21  4  0
 12 23  1  0
 13 20  4  0
 13 29  4  0
 14 17  4  0
 14 28  4  0
 15 25  2  0
 16 27  4  0
 17 18  4  0
 20 27  1  0
 24 27  4  0
 26 28  4  0
M  END
$$$$

 Created by Python create_sdf_string function

 29 33  0  0  0  0  0  0  0  0999 V2000
    8.8270   -7.0288   18.4251 C   0  0  0  0  0  0  0  0  0  0  0  0
    9.1576   -4.6236   15.8860 O   0  0  0  0  0  0  0  0  0  0  0  0
    9.1509   -5.9108   17.7177 C   0  0  0  0  0  0  0  0  0  0  0  0
    3.6373   -9.5349   16.0582 N   0  0  0  0  0  0  0  0  0  0  0  0
    9.9275   -4.8001   18.0438 N   0  0  0  0  0  0  0  0  0  0  0  0
    8.5908   -5.7425   16.4412 C   0  0  0  0  0  0  0  0  0  0  0  0
   10.5993   -4.8981   21.6068 C   0  0  0  0  0  0  0  0  0  0  0  0
   10.4258   -3.0106   23.0998 C   0  0  0  0  0  0  0  0  0  0  0  0
   10.2148   -3.4364   25.4200 C   0  0  0  0  0  0  0  0  0  0  0  0
    9.7853   -1.1840   24.4927 C   0  0  0  0  0  0  0  0  0  0  0  0
    5.0276   -8.5227   17.5352 C   0  0  0  0  0  0  0  0  0  0  0  0
    9.8187   -2.0895   25.5800 C   0  0  0  0  0  0  0  0  0  0  0  0
    5.6473   -8.7216   15.3158 C   0  0  0  0  0  0  0  0  0  0  0  0
   10.7581   -3.1233   19.4720 N   0  0  0  0  0  0  0  0  0  0  0  0
    9.9571   -4.0573   16.8866 C   0  0  0  0  0  0  0  0  0  0  0  0
    7.6213   -6.5618   16.0087 C   0  0  0  0  0  0  0  0  0  0  0  0
   10.8583   -2.6527   20.7222 C   0  0  0  0  0  0  0  0  0  0  0  0
   10.6412   -3.5089   21.7936 C   0  0  0  0  0  0  0  0  0  0  0  0
   10.4972   -3.8968   24.1589 C   0  0  0  0  0  0  0  0  0  0  0  0
    5.9260   -8.2736   16.5517 C   0  0  0  0  0  0  0  0  0  0  0  0
    3.8816   -9.1166   17.2493 C   0  0  0  0  0  0  0  0  0  0  0  0
   10.1297   -1.6575   23.2324 C   0  0  0  0  0  0  0  0  0  0  0  0
    9.4684   -1.6929   26.7263 F   0  0  0  0  0  0  0  0  0  0  0  0
    7.7963   -7.7906   17.9837 C   0  0  0  0  0  0  0  0  0  0  0  0
   10.5884   -3.0725   16.7902 O   0  0  0  0  0  0  0  0  0  0  0  0
   10.4323   -5.3494   20.3516 C   0  0  0  0  0  0  0  0  0  0  0  0
    7.1156   -7.5454   16.8218 C   0  0  0  0  0  0  0  0  0  0  0  0
   10.3885   -4.4388   19.2773 C   0  0  0  0  0  0  0  0  0  0  0  0
    4.5160   -9.3822   15.0841 C   0  0  0  0  0  0  0  0  0  0  0  0
  1  3  4  0
  1 24  4  0
  2  6  4  0
  2 15  4  0
  3  5  4  0
  3  6  4  0
  4 21  4  0
  4 29  4  0
  5 15  4  0
  5 28  1  0
  6 16  4  0
  7 18  4  0
  7 26  4  0
  8 18  1  0
  8 19  4  0
  8 22  4  0
  9 12  4  0
  9 19  4  0
 10 12  4  0
 10 22  4  0
 11 20  4  0
 11 21  4  0
 12 23  1  0
 13 20  4  0
 13 29  4  0
 14 17  4  0
 14 28  4  0
 15 25  2  0
 16 27  4  0
 17 18  4  0
 20 27  1  0
 24 27  4  0
 26 28  4  0
M  END
$$$$

 Created by Python create_sdf_string function

 29 33  0  0  0  0  0  0  0  0999 V2000
    8.8270   -7.0288   18.4251 C   0  0  0  0  0  0  0  0  0  0  0  0
    9.1576   -4.6236   15.8860 O   0  0  0  0  0  0  0  0  0  0  0  0
    9.1509   -5.9108   17.7177 C   0  0  0  0  0  0  0  0  0  0  0  0
    3.6373   -9.5349   16.0582 N   0  0  0  0  0  0  0  0  0  0  0  0
    9.9275   -4.8001   18.0438 N   0  0  0  0  0  0  0  0  0  0  0  0
    8.5908   -5.7425   16.4412 C   0  0  0  0  0  0  0  0  0  0  0  0
   10.5993   -4.8981   21.6068 C   0  0  0  0  0  0  0  0  0  0  0  0
   10.4258   -3.0106   23.0998 C   0  0  0  0  0  0  0  0  0  0  0  0
   10.2148   -3.4364   25.4200 C   0  0  0  0  0  0  0  0  0  0  0  0
    9.7853   -1.1840   24.4927 C   0  0  0  0  0  0  0  0  0  0  0  0
    5.0276   -8.5227   17.5352 C   0  0  0  0  0  0  0  0  0  0  0  0
    9.8187   -2.0895   25.5800 C   0  0  0  0  0  0  0  0  0  0  0  0
    5.6473   -8.7216   15.3158 C   0  0  0  0  0  0  0  0  0  0  0  0
   10.7581   -3.1233   19.4720 N   0  0  0  0  0  0  0  0  0  0  0  0
    9.9571   -4.0573   16.8866 C   0  0  0  0  0  0  0  0  0  0  0  0
    7.6213   -6.5618   16.0087 C   0  0  0  0  0  0  0  0  0  0  0  0
   10.8583   -2.6527   20.7222 C   0  0  0  0  0  0  0  0  0  0  0  0
   10.6412   -3.5089   21.7936 C   0  0  0  0  0  0  0  0  0  0  0  0
   10.4972   -3.8968   24.1589 C   0  0  0  0  0  0  0  0  0  0  0  0
    5.9260   -8.2736   16.5517 C   0  0  0  0  0  0  0  0  0  0  0  0
    3.8816   -9.1166   17.2493 C   0  0  0  0  0  0  0  0  0  0  0  0
   10.1297   -1.6575   23.2324 C   0  0  0  0  0  0  0  0  0  0  0  0
    9.4684   -1.6929   26.7263 F   0  0  0  0  0  0  0  0  0  0  0  0
    7.7963   -7.7906   17.9837 C   0  0  0  0  0  0  0  0  0  0  0  0
   10.5884   -3.0725   16.7902 O   0  0  0  0  0  0  0  0  0  0  0  0
   10.4323   -5.3494   20.3516 C   0  0  0  0  0  0  0  0  0  0  0  0
    7.1156   -7.5454   16.8218 C   0  0  0  0  0  0  0  0  0  0  0  0
   10.3885   -4.4388   19.2773 C   0  0  0  0  0  0  0  0  0  0  0  0
    4.5160   -9.3822   15.0841 C   0  0  0  0  0  0  0  0  0  0  0  0
  1  3  4  0
  1 24  4  0
  2  6  4  0
  2 15  4  0
  3  5  4  0
  3  6  4  0
  4 21  4  0
  4 29  4  0
  5 15  4  0
  5 28  1  0
  6 16  4  0
  7 18  4  0
  7 26  4  0
  8 18  1  0
  8 19  4  0
  8 22  4  0
  9 12  4  0
  9 19  4  0
 10 12  4  0
 10 22  4  0
 11 20  4  0
 11 21  4  0
 12 23  1  0
 13 20  4  0
 13 29  4  0
 14 17  4  0
 14 28  4  0
 15 25  2  0
 16 27  4  0
 17 18  4  0
 20 27  1  0
 24 27  4  0
 26 28  4  0
M  END
$$$$

 Created by Python create_sdf_string function

 29 33  0  0  0  0  0  0  0  0999 V2000
    8.8270   -7.0288   18.4251 C   0  0  0  0  0  0  0  0  0  0  0  0
    9.1576   -4.6236   15.8860 O   0  0  0  0  0  0  0  0  0  0  0  0
    9.1509   -5.9108   17.7177 C   0  0  0  0  0  0  0  0  0  0  0  0
    3.6373   -9.5349   16.0582 N   0  0  0  0  0  0  0  0  0  0  0  0
    9.9275   -4.8001   18.0438 N   0  0  0  0  0  0  0  0  0  0  0  0
    8.5908   -5.7425   16.4412 C   0  0  0  0  0  0  0  0  0  0  0  0
   10.5993   -4.8981   21.6068 C   0  0  0  0  0  0  0  0  0  0  0  0
   10.4258   -3.0106   23.0998 C   0  0  0  0  0  0  0  0  0  0  0  0
   10.2148   -3.4364   25.4200 C   0  0  0  0  0  0  0  0  0  0  0  0
    9.7853   -1.1840   24.4927 C   0  0  0  0  0  0  0  0  0  0  0  0
    5.0276   -8.5227   17.5352 C   0  0  0  0  0  0  0  0  0  0  0  0
    9.8187   -2.0895   25.5800 C   0  0  0  0  0  0  0  0  0  0  0  0
    5.6473   -8.7216   15.3158 C   0  0  0  0  0  0  0  0  0  0  0  0
   10.7581   -3.1233   19.4720 N   0  0  0  0  0  0  0  0  0  0  0  0
    9.9571   -4.0573   16.8866 C   0  0  0  0  0  0  0  0  0  0  0  0
    7.6213   -6.5618   16.0087 C   0  0  0  0  0  0  0  0  0  0  0  0
   10.8583   -2.6527   20.7222 C   0  0  0  0  0  0  0  0  0  0  0  0
   10.6412   -3.5089   21.7936 C   0  0  0  0  0  0  0  0  0  0  0  0
   10.4972   -3.8968   24.1589 C   0  0  0  0  0  0  0  0  0  0  0  0
    5.9260   -8.2736   16.5517 C   0  0  0  0  0  0  0  0  0  0  0  0
    3.8816   -9.1166   17.2493 C   0  0  0  0  0  0  0  0  0  0  0  0
   10.1297   -1.6575   23.2324 C   0  0  0  0  0  0  0  0  0  0  0  0
    9.4684   -1.6929   26.7263 F   0  0  0  0  0  0  0  0  0  0  0  0
    7.7963   -7.7906   17.9837 C   0  0  0  0  0  0  0  0  0  0  0  0
   10.5884   -3.0725   16.7902 O   0  0  0  0  0  0  0  0  0  0  0  0
   10.4323   -5.3494   20.3516 C   0  0  0  0  0  0  0  0  0  0  0  0
    7.1156   -7.5454   16.8218 C   0  0  0  0  0  0  0  0  0  0  0  0
   10.3885   -4.4388   19.2773 C   0  0  0  0  0  0  0  0  0  0  0  0
    4.5160   -9.3822   15.0841 C   0  0  0  0  0  0  0  0  0  0  0  0
  1  3  4  0
  1 24  4  0
  2  6  4  0
  2 15  4  0
  3  5  4  0
  3  6  4  0
  4 21  4  0
  4 29  4  0
  5 15  4  0
  5 28  1  0
  6 16  4  0
  7 18  4  0
  7 26  4  0
  8 18  1  0
  8 19  4  0
  8 22  4  0
  9 12  4  0
  9 19  4  0
 10 12  4  0
 10 22  4  0
 11 20  4  0
 11 21  4  0
 12 23  1  0
 13 20  4  0
 13 29  4  0
 14 17  4  0
 14 28  4  0
 15 25  2  0
 16 27  4  0
 17 18  4  0
 20 27  1  0
 24 27  4  0
 26 28  4  0
M  END
$$$$

 Created by Python create_sdf_string function

 29 33  0  0  0  0  0  0  0  0999 V2000
    8.8270   -7.0288   18.4251 C   0  0  0  0  0  0  0  0  0  0  0  0
    9.1576   -4.6236   15.8860 O   0  0  0  0  0  0  0  0  0  0  0  0
    9.1509   -5.9108   17.7177 C   0  0  0  0  0  0  0  0  0  0  0  0
    3.6373   -9.5349   16.0582 N   0  0  0  0  0  0  0  0  0  0  0  0
    9.9275   -4.8001   18.0438 N   0  0  0  0  0  0  0  0  0  0  0  0
    8.5908   -5.7425   16.4412 C   0  0  0  0  0  0  0  0  0  0  0  0
   10.5993   -4.8981   21.6068 C   0  0  0  0  0  0  0  0  0  0  0  0
   10.4258   -3.0106   23.0998 C   0  0  0  0  0  0  0  0  0  0  0  0
   10.2148   -3.4364   25.4200 C   0  0  0  0  0  0  0  0  0  0  0  0
    9.7853   -1.1840   24.4927 C   0  0  0  0  0  0  0  0  0  0  0  0
    5.0276   -8.5227   17.5352 C   0  0  0  0  0  0  0  0  0  0  0  0
    9.8187   -2.0895   25.5800 C   0  0  0  0  0  0  0  0  0  0  0  0
    5.6473   -8.7216   15.3158 C   0  0  0  0  0  0  0  0  0  0  0  0
   10.7581   -3.1233   19.4720 N   0  0  0  0  0  0  0  0  0  0  0  0
    9.9571   -4.0573   16.8866 C   0  0  0  0  0  0  0  0  0  0  0  0
    7.6213   -6.5618   16.0087 C   0  0  0  0  0  0  0  0  0  0  0  0
   10.8583   -2.6527   20.7222 C   0  0  0  0  0  0  0  0  0  0  0  0
   10.6412   -3.5089   21.7936 C   0  0  0  0  0  0  0  0  0  0  0  0
   10.4972   -3.8968   24.1589 C   0  0  0  0  0  0  0  0  0  0  0  0
    5.9260   -8.2736   16.5517 C   0  0  0  0  0  0  0  0  0  0  0  0
    3.8816   -9.1166   17.2493 C   0  0  0  0  0  0  0  0  0  0  0  0
   10.1297   -1.6575   23.2324 C   0  0  0  0  0  0  0  0  0  0  0  0
    9.4684   -1.6929   26.7263 F   0  0  0  0  0  0  0  0  0  0  0  0
    7.7963   -7.7906   17.9837 C   0  0  0  0  0  0  0  0  0  0  0  0
   10.5884   -3.0725   16.7902 O   0  0  0  0  0  0  0  0  0  0  0  0
   10.4323   -5.3494   20.3516 C   0  0  0  0  0  0  0  0  0  0  0  0
    7.1156   -7.5454   16.8218 C   0  0  0  0  0  0  0  0  0  0  0  0
   10.3885   -4.4388   19.2773 C   0  0  0  0  0  0  0  0  0  0  0  0
    4.5160   -9.3822   15.0841 C   0  0  0  0  0  0  0  0  0  0  0  0
  1  3  4  0
  1 24  4  0
  2  6  4  0
  2 15  4  0
  3  5  4  0
  3  6  4  0
  4 21  4  0
  4 29  4  0
  5 15  4  0
  5 28  1  0
  6 16  4  0
  7 18  4  0
  7 26  4  0
  8 18  1  0
  8 19  4  0
  8 22  4  0
  9 12  4  0
  9 19  4  0
 10 12  4  0
 10 22  4  0
 11 20  4  0
 11 21  4  0
 12 23  1  0
 13 20  4  0
 13 29  4  0
 14 17  4  0
 14 28  4  0
 15 25  2  0
 16 27  4  0
 17 18  4  0
 20 27  1  0
 24 27  4  0
 26 28  4  0
M  END
$$$$

 Created by Python create_sdf_string function

 29 33  0  0  0  0  0  0  0  0999 V2000
    8.8270   -7.0288   18.4251 C   0  0  0  0  0  0  0  0  0  0  0  0
    9.1576   -4.6236   15.8860 O   0  0  0  0  0  0  0  0  0  0  0  0
    9.1509   -5.9108   17.7177 C   0  0  0  0  0  0  0  0  0  0  0  0
    3.6373   -9.5349   16.0582 N   0  0  0  0  0  0  0  0  0  0  0  0
    9.9275   -4.8001   18.0438 N   0  0  0  0  0  0  0  0  0  0  0  0
    8.5908   -5.7425   16.4412 C   0  0  0  0  0  0  0  0  0  0  0  0
   10.5993   -4.8981   21.6068 C   0  0  0  0  0  0  0  0  0  0  0  0
   10.4258   -3.0106   23.0998 C   0  0  0  0  0  0  0  0  0  0  0  0
   10.2148   -3.4364   25.4200 C   0  0  0  0  0  0  0  0  0  0  0  0
    9.7853   -1.1840   24.4927 C   0  0  0  0  0  0  0  0  0  0  0  0
    5.0276   -8.5227   17.5352 C   0  0  0  0  0  0  0  0  0  0  0  0
    9.8187   -2.0895   25.5800 C   0  0  0  0  0  0  0  0  0  0  0  0
    5.6473   -8.7216   15.3158 C   0  0  0  0  0  0  0  0  0  0  0  0
   10.7581   -3.1233   19.4720 N   0  0  0  0  0  0  0  0  0  0  0  0
    9.9571   -4.0573   16.8866 C   0  0  0  0  0  0  0  0  0  0  0  0
    7.6213   -6.5618   16.0087 C   0  0  0  0  0  0  0  0  0  0  0  0
   10.8583   -2.6527   20.7222 C   0  0  0  0  0  0  0  0  0  0  0  0
   10.6412   -3.5089   21.7936 C   0  0  0  0  0  0  0  0  0  0  0  0
   10.4972   -3.8968   24.1589 C   0  0  0  0  0  0  0  0  0  0  0  0
    5.9260   -8.2736   16.5517 C   0  0  0  0  0  0  0  0  0  0  0  0
    3.8816   -9.1166   17.2493 C   0  0  0  0  0  0  0  0  0  0  0  0
   10.1297   -1.6575   23.2324 C   0  0  0  0  0  0  0  0  0  0  0  0
    9.4684   -1.6929   26.7263 F   0  0  0  0  0  0  0  0  0  0  0  0
    7.7963   -7.7906   17.9837 C   0  0  0  0  0  0  0  0  0  0  0  0
   10.5884   -3.0725   16.7902 O   0  0  0  0  0  0  0  0  0  0  0  0
   10.4323   -5.3494   20.3516 C   0  0  0  0  0  0  0  0  0  0  0  0
    7.1156   -7.5454   16.8218 C   0  0  0  0  0  0  0  0  0  0  0  0
   10.3885   -4.4388   19.2773 C   0  0  0  0  0  0  0  0  0  0  0  0
    4.5160   -9.3822   15.0841 C   0  0  0  0  0  0  0  0  0  0  0  0
  1  3  4  0
  1 24  4  0
  2  6  4  0
  2 15  4  0
  3  5  4  0
  3  6  4  0
  4 21  4  0
  4 29  4  0
  5 15  4  0
  5 28  1  0
  6 16  4  0
  7 18  4  0
  7 26  4  0
  8 18  1  0
  8 19  4  0
  8 22  4  0
  9 12  4  0
  9 19  4  0
 10 12  4  0
 10 22  4  0
 11 20  4  0
 11 21  4  0
 12 23  1  0
 13 20  4  0
 13 29  4  0
 14 17  4  0
 14 28  4  0
 15 25  2  0
 16 27  4  0
 17 18  4  0
 20 27  1  0
 24 27  4  0
 26 28  4  0
M  END
$$$$

 Created by Python create_sdf_string function

 29 33  0  0  0  0  0  0  0  0999 V2000
    8.8270   -7.0288   18.4251 C   0  0  0  0  0  0  0  0  0  0  0  0
    9.1576   -4.6236   15.8860 O   0  0  0  0  0  0  0  0  0  0  0  0
    9.1509   -5.9108   17.7177 C   0  0  0  0  0  0  0  0  0  0  0  0
    3.6373   -9.5349   16.0582 N   0  0  0  0  0  0  0  0  0  0  0  0
    9.9275   -4.8001   18.0438 N   0  0  0  0  0  0  0  0  0  0  0  0
    8.5908   -5.7425   16.4412 C   0  0  0  0  0  0  0  0  0  0  0  0
   10.5993   -4.8981   21.6068 C   0  0  0  0  0  0  0  0  0  0  0  0
   10.4258   -3.0106   23.0998 C   0  0  0  0  0  0  0  0  0  0  0  0
   10.2148   -3.4364   25.4200 C   0  0  0  0  0  0  0  0  0  0  0  0
    9.7853   -1.1840   24.4927 C   0  0  0  0  0  0  0  0  0  0  0  0
    5.0276   -8.5227   17.5352 C   0  0  0  0  0  0  0  0  0  0  0  0
    9.8187   -2.0895   25.5800 C   0  0  0  0  0  0  0  0  0  0  0  0
    5.6473   -8.7216   15.3158 C   0  0  0  0  0  0  0  0  0  0  0  0
   10.7581   -3.1233   19.4720 N   0  0  0  0  0  0  0  0  0  0  0  0
    9.9571   -4.0573   16.8866 C   0  0  0  0  0  0  0  0  0  0  0  0
    7.6213   -6.5618   16.0087 C   0  0  0  0  0  0  0  0  0  0  0  0
   10.8583   -2.6527   20.7222 C   0  0  0  0  0  0  0  0  0  0  0  0
   10.6412   -3.5089   21.7936 C   0  0  0  0  0  0  0  0  0  0  0  0
   10.4972   -3.8968   24.1589 C   0  0  0  0  0  0  0  0  0  0  0  0
    5.9260   -8.2736   16.5517 C   0  0  0  0  0  0  0  0  0  0  0  0
    3.8816   -9.1166   17.2493 C   0  0  0  0  0  0  0  0  0  0  0  0
   10.1297   -1.6575   23.2324 C   0  0  0  0  0  0  0  0  0  0  0  0
    9.4684   -1.6929   26.7263 F   0  0  0  0  0  0  0  0  0  0  0  0
    7.7963   -7.7906   17.9837 C   0  0  0  0  0  0  0  0  0  0  0  0
   10.5884   -3.0725   16.7902 O   0  0  0  0  0  0  0  0  0  0  0  0
   10.4323   -5.3494   20.3516 C   0  0  0  0  0  0  0  0  0  0  0  0
    7.1156   -7.5454   16.8218 C   0  0  0  0  0  0  0  0  0  0  0  0
   10.3885   -4.4388   19.2773 C   0  0  0  0  0  0  0  0  0  0  0  0
    4.5160   -9.3822   15.0841 C   0  0  0  0  0  0  0  0  0  0  0  0
  1  3  4  0
  1 24  4  0
  2  6  4  0
  2 15  4  0
  3  5  4  0
  3  6  4  0
  4 21  4  0
  4 29  4  0
  5 15  4  0
  5 28  1  0
  6 16  4  0
  7 18  4  0
  7 26  4  0
  8 18  1  0
  8 19  4  0
  8 22  4  0
  9 12  4  0
  9 19  4  0
 10 12  4  0
 10 22  4  0
 11 20  4  0
 11 21  4  0
 12 23  1  0
 13 20  4  0
 13 29  4  0
 14 17  4  0
 14 28  4  0
 15 25  2  0
 16 27  4  0
 17 18  4  0
 20 27  1  0
 24 27  4  0
 26 28  4  0
M  END
$$$$

 Created by Python create_sdf_string function

 29 33  0  0  0  0  0  0  0  0999 V2000
    8.8270   -7.0288   18.4251 C   0  0  0  0  0  0  0  0  0  0  0  0
    9.1576   -4.6236   15.8860 O   0  0  0  0  0  0  0  0  0  0  0  0
    9.1509   -5.9108   17.7177 C   0  0  0  0  0  0  0  0  0  0  0  0
    3.6373   -9.5349   16.0582 N   0  0  0  0  0  0  0  0  0  0  0  0
    9.9275   -4.8001   18.0438 N   0  0  0  0  0  0  0  0  0  0  0  0
    8.5908   -5.7425   16.4412 C   0  0  0  0  0  0  0  0  0  0  0  0
   10.5993   -4.8981   21.6068 C   0  0  0  0  0  0  0  0  0  0  0  0
   10.4258   -3.0106   23.0998 C   0  0  0  0  0  0  0  0  0  0  0  0
   10.2148   -3.4364   25.4200 C   0  0  0  0  0  0  0  0  0  0  0  0
    9.7853   -1.1840   24.4927 C   0  0  0  0  0  0  0  0  0  0  0  0
    5.0276   -8.5227   17.5352 C   0  0  0  0  0  0  0  0  0  0  0  0
    9.8187   -2.0895   25.5800 C   0  0  0  0  0  0  0  0  0  0  0  0
    5.6473   -8.7216   15.3158 C   0  0  0  0  0  0  0  0  0  0  0  0
   10.7581   -3.1233   19.4720 N   0  0  0  0  0  0  0  0  0  0  0  0
    9.9571   -4.0573   16.8866 C   0  0  0  0  0  0  0  0  0  0  0  0
    7.6213   -6.5618   16.0087 C   0  0  0  0  0  0  0  0  0  0  0  0
   10.8583   -2.6527   20.7222 C   0  0  0  0  0  0  0  0  0  0  0  0
   10.6412   -3.5089   21.7936 C   0  0  0  0  0  0  0  0  0  0  0  0
   10.4972   -3.8968   24.1589 C   0  0  0  0  0  0  0  0  0  0  0  0
    5.9260   -8.2736   16.5517 C   0  0  0  0  0  0  0  0  0  0  0  0
    3.8816   -9.1166   17.2493 C   0  0  0  0  0  0  0  0  0  0  0  0
   10.1297   -1.6575   23.2324 C   0  0  0  0  0  0  0  0  0  0  0  0
    9.4684   -1.6929   26.7263 F   0  0  0  0  0  0  0  0  0  0  0  0
    7.7963   -7.7906   17.9837 C   0  0  0  0  0  0  0  0  0  0  0  0
   10.5884   -3.0725   16.7902 O   0  0  0  0  0  0  0  0  0  0  0  0
   10.4323   -5.3494   20.3516 C   0  0  0  0  0  0  0  0  0  0  0  0
    7.1156   -7.5454   16.8218 C   0  0  0  0  0  0  0  0  0  0  0  0
   10.3885   -4.4388   19.2773 C   0  0  0  0  0  0  0  0  0  0  0  0
    4.5160   -9.3822   15.0841 C   0  0  0  0  0  0  0  0  0  0  0  0
  1  3  4  0
  1 24  4  0
  2  6  4  0
  2 15  4  0
  3  5  4  0
  3  6  4  0
  4 21  4  0
  4 29  4  0
  5 15  4  0
  5 28  1  0
  6 16  4  0
  7 18  4  0
  7 26  4  0
  8 18  1  0
  8 19  4  0
  8 22  4  0
  9 12  4  0
  9 19  4  0
 10 12  4  0
 10 22  4  0
 11 20  4  0
 11 21  4  0
 12 23  1  0
 13 20  4  0
 13 29  4  0
 14 17  4  0
 14 28  4  0
 15 25  2  0
 16 27  4  0
 17 18  4  0
 20 27  1  0
 24 27  4  0
 26 28  4  0
M  END
$$$$

 Created by Python create_sdf_string function

 29 33  0  0  0  0  0  0  0  0999 V2000
    8.8270   -7.0288   18.4251 C   0  0  0  0  0  0  0  0  0  0  0  0
    9.1576   -4.6236   15.8860 O   0  0  0  0  0  0  0  0  0  0  0  0
    9.1509   -5.9108   17.7177 C   0  0  0  0  0  0  0  0  0  0  0  0
    3.6373   -9.5349   16.0582 N   0  0  0  0  0  0  0  0  0  0  0  0
    9.9275   -4.8001   18.0438 N   0  0  0  0  0  0  0  0  0  0  0  0
    8.5908   -5.7425   16.4412 C   0  0  0  0  0  0  0  0  0  0  0  0
   10.5993   -4.8981   21.6068 C   0  0  0  0  0  0  0  0  0  0  0  0
   10.4258   -3.0106   23.0998 C   0  0  0  0  0  0  0  0  0  0  0  0
   10.2148   -3.4364   25.4200 C   0  0  0  0  0  0  0  0  0  0  0  0
    9.7853   -1.1840   24.4927 C   0  0  0  0  0  0  0  0  0  0  0  0
    5.0276   -8.5227   17.5352 C   0  0  0  0  0  0  0  0  0  0  0  0
    9.8187   -2.0895   25.5800 C   0  0  0  0  0  0  0  0  0  0  0  0
    5.6473   -8.7216   15.3158 C   0  0  0  0  0  0  0  0  0  0  0  0
   10.7581   -3.1233   19.4720 N   0  0  0  0  0  0  0  0  0  0  0  0
    9.9571   -4.0573   16.8866 C   0  0  0  0  0  0  0  0  0  0  0  0
    7.6213   -6.5618   16.0087 C   0  0  0  0  0  0  0  0  0  0  0  0
   10.8583   -2.6527   20.7222 C   0  0  0  0  0  0  0  0  0  0  0  0
   10.6412   -3.5089   21.7936 C   0  0  0  0  0  0  0  0  0  0  0  0
   10.4972   -3.8968   24.1589 C   0  0  0  0  0  0  0  0  0  0  0  0
    5.9260   -8.2736   16.5517 C   0  0  0  0  0  0  0  0  0  0  0  0
    3.8816   -9.1166   17.2493 C   0  0  0  0  0  0  0  0  0  0  0  0
   10.1297   -1.6575   23.2324 C   0  0  0  0  0  0  0  0  0  0  0  0
    9.4684   -1.6929   26.7263 F   0  0  0  0  0  0  0  0  0  0  0  0
    7.7963   -7.7906   17.9837 C   0  0  0  0  0  0  0  0  0  0  0  0
   10.5884   -3.0725   16.7902 O   0  0  0  0  0  0  0  0  0  0  0  0
   10.4323   -5.3494   20.3516 C   0  0  0  0  0  0  0  0  0  0  0  0
    7.1156   -7.5454   16.8218 C   0  0  0  0  0  0  0  0  0  0  0  0
   10.3885   -4.4388   19.2773 C   0  0  0  0  0  0  0  0  0  0  0  0
    4.5160   -9.3822   15.0841 C   0  0  0  0  0  0  0  0  0  0  0  0
  1  3  4  0
  1 24  4  0
  2  6  4  0
  2 15  4  0
  3  5  4  0
  3  6  4  0
  4 21  4  0
  4 29  4  0
  5 15  4  0
  5 28  1  0
  6 16  4  0
  7 18  4  0
  7 26  4  0
  8 18  1  0
  8 19  4  0
  8 22  4  0
  9 12  4  0
  9 19  4  0
 10 12  4  0
 10 22  4  0
 11 20  4  0
 11 21  4  0
 12 23  1  0
 13 20  4  0
 13 29  4  0
 14 17  4  0
 14 28  4  0
 15 25  2  0
 16 27  4  0
 17 18  4  0
 20 27  1  0
 24 27  4  0
 26 28  4  0
M  END
$$$$

 Created by Python create_sdf_string function

 29 33  0  0  0  0  0  0  0  0999 V2000
    8.8270   -7.0288   18.4251 C   0  0  0  0  0  0  0  0  0  0  0  0
    9.1576   -4.6236   15.8860 O   0  0  0  0  0  0  0  0  0  0  0  0
    9.1509   -5.9108   17.7177 C   0  0  0  0  0  0  0  0  0  0  0  0
    3.6373   -9.5349   16.0582 N   0  0  0  0  0  0  0  0  0  0  0  0
    9.9275   -4.8001   18.0438 N   0  0  0  0  0  0  0  0  0  0  0  0
    8.5908   -5.7425   16.4412 C   0  0  0  0  0  0  0  0  0  0  0  0
   10.5993   -4.8981   21.6068 C   0  0  0  0  0  0  0  0  0  0  0  0
   10.4258   -3.0106   23.0998 C   0  0  0  0  0  0  0  0  0  0  0  0
   10.2148   -3.4364   25.4200 C   0  0  0  0  0  0  0  0  0  0  0  0
    9.7853   -1.1840   24.4927 C   0  0  0  0  0  0  0  0  0  0  0  0
    5.0276   -8.5227   17.5352 C   0  0  0  0  0  0  0  0  0  0  0  0
    9.8187   -2.0895   25.5800 C   0  0  0  0  0  0  0  0  0  0  0  0
    5.6473   -8.7216   15.3158 C   0  0  0  0  0  0  0  0  0  0  0  0
   10.7581   -3.1233   19.4720 N   0  0  0  0  0  0  0  0  0  0  0  0
    9.9571   -4.0573   16.8866 C   0  0  0  0  0  0  0  0  0  0  0  0
    7.6213   -6.5618   16.0087 C   0  0  0  0  0  0  0  0  0  0  0  0
   10.8583   -2.6527   20.7222 C   0  0  0  0  0  0  0  0  0  0  0  0
   10.6412   -3.5089   21.7936 C   0  0  0  0  0  0  0  0  0  0  0  0
   10.4972   -3.8968   24.1589 C   0  0  0  0  0  0  0  0  0  0  0  0
    5.9260   -8.2736   16.5517 C   0  0  0  0  0  0  0  0  0  0  0  0
    3.8816   -9.1166   17.2493 C   0  0  0  0  0  0  0  0  0  0  0  0
   10.1297   -1.6575   23.2324 C   0  0  0  0  0  0  0  0  0  0  0  0
    9.4684   -1.6929   26.7263 F   0  0  0  0  0  0  0  0  0  0  0  0
    7.7963   -7.7906   17.9837 C   0  0  0  0  0  0  0  0  0  0  0  0
   10.5884   -3.0725   16.7902 O   0  0  0  0  0  0  0  0  0  0  0  0
   10.4323   -5.3494   20.3516 C   0  0  0  0  0  0  0  0  0  0  0  0
    7.1156   -7.5454   16.8218 C   0  0  0  0  0  0  0  0  0  0  0  0
   10.3885   -4.4388   19.2773 C   0  0  0  0  0  0  0  0  0  0  0  0
    4.5160   -9.3822   15.0841 C   0  0  0  0  0  0  0  0  0  0  0  0
  1  3  4  0
  1 24  4  0
  2  6  4  0
  2 15  4  0
  3  5  4  0
  3  6  4  0
  4 21  4  0
  4 29  4  0
  5 15  4  0
  5 28  1  0
  6 16  4  0
  7 18  4  0
  7 26  4  0
  8 18  1  0
  8 19  4  0
  8 22  4  0
  9 12  4  0
  9 19  4  0
 10 12  4  0
 10 22  4  0
 11 20  4  0
 11 21  4  0
 12 23  1  0
 13 20  4  0
 13 29  4  0
 14 17  4  0
 14 28  4  0
 15 25  2  0
 16 27  4  0
 17 18  4  0
 20 27  1  0
 24 27  4  0
 26 28  4  0
M  END
$$$$

 Created by Python create_sdf_string function

 29 33  0  0  0  0  0  0  0  0999 V2000
    8.8270   -7.0288   18.4251 C   0  0  0  0  0  0  0  0  0  0  0  0
    9.1576   -4.6236   15.8860 O   0  0  0  0  0  0  0  0  0  0  0  0
    9.1509   -5.9108   17.7177 C   0  0  0  0  0  0  0  0  0  0  0  0
    3.6373   -9.5349   16.0582 N   0  0  0  0  0  0  0  0  0  0  0  0
    9.9275   -4.8001   18.0438 N   0  0  0  0  0  0  0  0  0  0  0  0
    8.5908   -5.7425   16.4412 C   0  0  0  0  0  0  0  0  0  0  0  0
   10.5993   -4.8981   21.6068 C   0  0  0  0  0  0  0  0  0  0  0  0
   10.4258   -3.0106   23.0998 C   0  0  0  0  0  0  0  0  0  0  0  0
   10.2148   -3.4364   25.4200 C   0  0  0  0  0  0  0  0  0  0  0  0
    9.7853   -1.1840   24.4927 C   0  0  0  0  0  0  0  0  0  0  0  0
    5.0276   -8.5227   17.5352 C   0  0  0  0  0  0  0  0  0  0  0  0
    9.8187   -2.0895   25.5800 C   0  0  0  0  0  0  0  0  0  0  0  0
    5.6473   -8.7216   15.3158 C   0  0  0  0  0  0  0  0  0  0  0  0
   10.7581   -3.1233   19.4720 N   0  0  0  0  0  0  0  0  0  0  0  0
    9.9571   -4.0573   16.8866 C   0  0  0  0  0  0  0  0  0  0  0  0
    7.6213   -6.5618   16.0087 C   0  0  0  0  0  0  0  0  0  0  0  0
   10.8583   -2.6527   20.7222 C   0  0  0  0  0  0  0  0  0  0  0  0
   10.6412   -3.5089   21.7936 C   0  0  0  0  0  0  0  0  0  0  0  0
   10.4972   -3.8968   24.1589 C   0  0  0  0  0  0  0  0  0  0  0  0
    5.9260   -8.2736   16.5517 C   0  0  0  0  0  0  0  0  0  0  0  0
    3.8816   -9.1166   17.2493 C   0  0  0  0  0  0  0  0  0  0  0  0
   10.1297   -1.6575   23.2324 C   0  0  0  0  0  0  0  0  0  0  0  0
    9.4684   -1.6929   26.7263 F   0  0  0  0  0  0  0  0  0  0  0  0
    7.7963   -7.7906   17.9837 C   0  0  0  0  0  0  0  0  0  0  0  0
   10.5884   -3.0725   16.7902 O   0  0  0  0  0  0  0  0  0  0  0  0
   10.4323   -5.3494   20.3516 C   0  0  0  0  0  0  0  0  0  0  0  0
    7.1156   -7.5454   16.8218 C   0  0  0  0  0  0  0  0  0  0  0  0
   10.3885   -4.4388   19.2773 C   0  0  0  0  0  0  0  0  0  0  0  0
    4.5160   -9.3822   15.0841 C   0  0  0  0  0  0  0  0  0  0  0  0
  1  3  4  0
  1 24  4  0
  2  6  4  0
  2 15  4  0
  3  5  4  0
  3  6  4  0
  4 21  4  0
  4 29  4  0
  5 15  4  0
  5 28  1  0
  6 16  4  0
  7 18  4  0
  7 26  4  0
  8 18  1  0
  8 19  4  0
  8 22  4  0
  9 12  4  0
  9 19  4  0
 10 12  4  0
 10 22  4  0
 11 20  4  0
 11 21  4  0
 12 23  1  0
 13 20  4  0
 13 29  4  0
 14 17  4  0
 14 28  4  0
 15 25  2  0
 16 27  4  0
 17 18  4  0
 20 27  1  0
 24 27  4  0
 26 28  4  0
M  END
$$$$

 Created by Python create_sdf_string function

 29 33  0  0  0  0  0  0  0  0999 V2000
    8.8270   -7.0288   18.4251 C   0  0  0  0  0  0  0  0  0  0  0  0
    9.1576   -4.6236   15.8860 O   0  0  0  0  0  0  0  0  0  0  0  0
    9.1509   -5.9108   17.7177 C   0  0  0  0  0  0  0  0  0  0  0  0
    3.6373   -9.5349   16.0582 N   0  0  0  0  0  0  0  0  0  0  0  0
    9.9275   -4.8001   18.0438 N   0  0  0  0  0  0  0  0  0  0  0  0
    8.5908   -5.7425   16.4412 C   0  0  0  0  0  0  0  0  0  0  0  0
   10.5993   -4.8981   21.6068 C   0  0  0  0  0  0  0  0  0  0  0  0
   10.4258   -3.0106   23.0998 C   0  0  0  0  0  0  0  0  0  0  0  0
   10.2148   -3.4364   25.4200 C   0  0  0  0  0  0  0  0  0  0  0  0
    9.7853   -1.1840   24.4927 C   0  0  0  0  0  0  0  0  0  0  0  0
    5.0276   -8.5227   17.5352 C   0  0  0  0  0  0  0  0  0  0  0  0
    9.8187   -2.0895   25.5800 C   0  0  0  0  0  0  0  0  0  0  0  0
    5.6473   -8.7216   15.3158 C   0  0  0  0  0  0  0  0  0  0  0  0
   10.7581   -3.1233   19.4720 N   0  0  0  0  0  0  0  0  0  0  0  0
    9.9571   -4.0573   16.8866 C   0  0  0  0  0  0  0  0  0  0  0  0
    7.6213   -6.5618   16.0087 C   0  0  0  0  0  0  0  0  0  0  0  0
   10.8583   -2.6527   20.7222 C   0  0  0  0  0  0  0  0  0  0  0  0
   10.6412   -3.5089   21.7936 C   0  0  0  0  0  0  0  0  0  0  0  0
   10.4972   -3.8968   24.1589 C   0  0  0  0  0  0  0  0  0  0  0  0
    5.9260   -8.2736   16.5517 C   0  0  0  0  0  0  0  0  0  0  0  0
    3.8816   -9.1166   17.2493 C   0  0  0  0  0  0  0  0  0  0  0  0
   10.1297   -1.6575   23.2324 C   0  0  0  0  0  0  0  0  0  0  0  0
    9.4684   -1.6929   26.7263 F   0  0  0  0  0  0  0  0  0  0  0  0
    7.7963   -7.7906   17.9837 C   0  0  0  0  0  0  0  0  0  0  0  0
   10.5884   -3.0725   16.7902 O   0  0  0  0  0  0  0  0  0  0  0  0
   10.4323   -5.3494   20.3516 C   0  0  0  0  0  0  0  0  0  0  0  0
    7.1156   -7.5454   16.8218 C   0  0  0  0  0  0  0  0  0  0  0  0
   10.3885   -4.4388   19.2773 C   0  0  0  0  0  0  0  0  0  0  0  0
    4.5160   -9.3822   15.0841 C   0  0  0  0  0  0  0  0  0  0  0  0
  1  3  4  0
  1 24  4  0
  2  6  4  0
  2 15  4  0
  3  5  4  0
  3  6  4  0
  4 21  4  0
  4 29  4  0
  5 15  4  0
  5 28  1  0
  6 16  4  0
  7 18  4  0
  7 26  4  0
  8 18  1  0
  8 19  4  0
  8 22  4  0
  9 12  4  0
  9 19  4  0
 10 12  4  0
 10 22  4  0
 11 20  4  0
 11 21  4  0
 12 23  1  0
 13 20  4  0
 13 29  4  0
 14 17  4  0
 14 28  4  0
 15 25  2  0
 16 27  4  0
 17 18  4  0
 20 27  1  0
 24 27  4  0
 26 28  4  0
M  END
$$$$

 Created by Python create_sdf_string function

 29 33  0  0  0  0  0  0  0  0999 V2000
    8.8270   -7.0288   18.4251 C   0  0  0  0  0  0  0  0  0  0  0  0
    9.1576   -4.6236   15.8860 O   0  0  0  0  0  0  0  0  0  0  0  0
    9.1509   -5.9108   17.7177 C   0  0  0  0  0  0  0  0  0  0  0  0
    3.6373   -9.5349   16.0582 N   0  0  0  0  0  0  0  0  0  0  0  0
    9.9275   -4.8001   18.0438 N   0  0  0  0  0  0  0  0  0  0  0  0
    8.5908   -5.7425   16.4412 C   0  0  0  0  0  0  0  0  0  0  0  0
   10.5993   -4.8981   21.6068 C   0  0  0  0  0  0  0  0  0  0  0  0
   10.4258   -3.0106   23.0998 C   0  0  0  0  0  0  0  0  0  0  0  0
   10.2148   -3.4364   25.4200 C   0  0  0  0  0  0  0  0  0  0  0  0
    9.7853   -1.1840   24.4927 C   0  0  0  0  0  0  0  0  0  0  0  0
    5.0276   -8.5227   17.5352 C   0  0  0  0  0  0  0  0  0  0  0  0
    9.8187   -2.0895   25.5800 C   0  0  0  0  0  0  0  0  0  0  0  0
    5.6473   -8.7216   15.3158 C   0  0  0  0  0  0  0  0  0  0  0  0
   10.7581   -3.1233   19.4720 N   0  0  0  0  0  0  0  0  0  0  0  0
    9.9571   -4.0573   16.8866 C   0  0  0  0  0  0  0  0  0  0  0  0
    7.6213   -6.5618   16.0087 C   0  0  0  0  0  0  0  0  0  0  0  0
   10.8583   -2.6527   20.7222 C   0  0  0  0  0  0  0  0  0  0  0  0
   10.6412   -3.5089   21.7936 C   0  0  0  0  0  0  0  0  0  0  0  0
   10.4972   -3.8968   24.1589 C   0  0  0  0  0  0  0  0  0  0  0  0
    5.9260   -8.2736   16.5517 C   0  0  0  0  0  0  0  0  0  0  0  0
    3.8816   -9.1166   17.2493 C   0  0  0  0  0  0  0  0  0  0  0  0
   10.1297   -1.6575   23.2324 C   0  0  0  0  0  0  0  0  0  0  0  0
    9.4684   -1.6929   26.7263 F   0  0  0  0  0  0  0  0  0  0  0  0
    7.7963   -7.7906   17.9837 C   0  0  0  0  0  0  0  0  0  0  0  0
   10.5884   -3.0725   16.7902 O   0  0  0  0  0  0  0  0  0  0  0  0
   10.4323   -5.3494   20.3516 C   0  0  0  0  0  0  0  0  0  0  0  0
    7.1156   -7.5454   16.8218 C   0  0  0  0  0  0  0  0  0  0  0  0
   10.3885   -4.4388   19.2773 C   0  0  0  0  0  0  0  0  0  0  0  0
    4.5160   -9.3822   15.0841 C   0  0  0  0  0  0  0  0  0  0  0  0
  1  3  4  0
  1 24  4  0
  2  6  4  0
  2 15  4  0
  3  5  4  0
  3  6  4  0
  4 21  4  0
  4 29  4  0
  5 15  4  0
  5 28  1  0
  6 16  4  0
  7 18  4  0
  7 26  4  0
  8 18  1  0
  8 19  4  0
  8 22  4  0
  9 12  4  0
  9 19  4  0
 10 12  4  0
 10 22  4  0
 11 20  4  0
 11 21  4  0
 12 23  1  0
 13 20  4  0
 13 29  4  0
 14 17  4  0
 14 28  4  0
 15 25  2  0
 16 27  4  0
 17 18  4  0
 20 27  1  0
 24 27  4  0
 26 28  4  0
M  END
$$$$

 Created by Python create_sdf_string function

 29 33  0  0  0  0  0  0  0  0999 V2000
    8.8270   -7.0288   18.4251 C   0  0  0  0  0  0  0  0  0  0  0  0
    9.1576   -4.6236   15.8860 O   0  0  0  0  0  0  0  0  0  0  0  0
    9.1509   -5.9108   17.7177 C   0  0  0  0  0  0  0  0  0  0  0  0
    3.6373   -9.5349   16.0582 N   0  0  0  0  0  0  0  0  0  0  0  0
    9.9275   -4.8001   18.0438 N   0  0  0  0  0  0  0  0  0  0  0  0
    8.5908   -5.7425   16.4412 C   0  0  0  0  0  0  0  0  0  0  0  0
   10.5993   -4.8981   21.6068 C   0  0  0  0  0  0  0  0  0  0  0  0
   10.4258   -3.0106   23.0998 C   0  0  0  0  0  0  0  0  0  0  0  0
   10.2148   -3.4364   25.4200 C   0  0  0  0  0  0  0  0  0  0  0  0
    9.7853   -1.1840   24.4927 C   0  0  0  0  0  0  0  0  0  0  0  0
    5.0276   -8.5227   17.5352 C   0  0  0  0  0  0  0  0  0  0  0  0
    9.8187   -2.0895   25.5800 C   0  0  0  0  0  0  0  0  0  0  0  0
    5.6473   -8.7216   15.3158 C   0  0  0  0  0  0  0  0  0  0  0  0
   10.7581   -3.1233   19.4720 N   0  0  0  0  0  0  0  0  0  0  0  0
    9.9571   -4.0573   16.8866 C   0  0  0  0  0  0  0  0  0  0  0  0
    7.6213   -6.5618   16.0087 C   0  0  0  0  0  0  0  0  0  0  0  0
   10.8583   -2.6527   20.7222 C   0  0  0  0  0  0  0  0  0  0  0  0
   10.6412   -3.5089   21.7936 C   0  0  0  0  0  0  0  0  0  0  0  0
   10.4972   -3.8968   24.1589 C   0  0  0  0  0  0  0  0  0  0  0  0
    5.9260   -8.2736   16.5517 C   0  0  0  0  0  0  0  0  0  0  0  0
    3.8816   -9.1166   17.2493 C   0  0  0  0  0  0  0  0  0  0  0  0
   10.1297   -1.6575   23.2324 C   0  0  0  0  0  0  0  0  0  0  0  0
    9.4684   -1.6929   26.7263 F   0  0  0  0  0  0  0  0  0  0  0  0
    7.7963   -7.7906   17.9837 C   0  0  0  0  0  0  0  0  0  0  0  0
   10.5884   -3.0725   16.7902 O   0  0  0  0  0  0  0  0  0  0  0  0
   10.4323   -5.3494   20.3516 C   0  0  0  0  0  0  0  0  0  0  0  0
    7.1156   -7.5454   16.8218 C   0  0  0  0  0  0  0  0  0  0  0  0
   10.3885   -4.4388   19.2773 C   0  0  0  0  0  0  0  0  0  0  0  0
    4.5160   -9.3822   15.0841 C   0  0  0  0  0  0  0  0  0  0  0  0
  1  3  4  0
  1 24  4  0
  2  6  4  0
  2 15  4  0
  3  5  4  0
  3  6  4  0
  4 21  4  0
  4 29  4  0
  5 15  4  0
  5 28  1  0
  6 16  4  0
  7 18  4  0
  7 26  4  0
  8 18  1  0
  8 19  4  0
  8 22  4  0
  9 12  4  0
  9 19  4  0
 10 12  4  0
 10 22  4  0
 11 20  4  0
 11 21  4  0
 12 23  1  0
 13 20  4  0
 13 29  4  0
 14 17  4  0
 14 28  4  0
 15 25  2  0
 16 27  4  0
 17 18  4  0
 20 27  1  0
 24 27  4  0
 26 28  4  0
M  END
$$$$

 Created by Python create_sdf_string function

 29 33  0  0  0  0  0  0  0  0999 V2000
    8.8270   -7.0288   18.4251 C   0  0  0  0  0  0  0  0  0  0  0  0
    9.1576   -4.6236   15.8860 O   0  0  0  0  0  0  0  0  0  0  0  0
    9.1509   -5.9108   17.7177 C   0  0  0  0  0  0  0  0  0  0  0  0
    3.6373   -9.5349   16.0582 N   0  0  0  0  0  0  0  0  0  0  0  0
    9.9275   -4.8001   18.0438 N   0  0  0  0  0  0  0  0  0  0  0  0
    8.5908   -5.7425   16.4412 C   0  0  0  0  0  0  0  0  0  0  0  0
   10.5993   -4.8981   21.6068 C   0  0  0  0  0  0  0  0  0  0  0  0
   10.4258   -3.0106   23.0998 C   0  0  0  0  0  0  0  0  0  0  0  0
   10.2148   -3.4364   25.4200 C   0  0  0  0  0  0  0  0  0  0  0  0
    9.7853   -1.1840   24.4927 C   0  0  0  0  0  0  0  0  0  0  0  0
    5.0276   -8.5227   17.5352 C   0  0  0  0  0  0  0  0  0  0  0  0
    9.8187   -2.0895   25.5800 C   0  0  0  0  0  0  0  0  0  0  0  0
    5.6473   -8.7216   15.3158 C   0  0  0  0  0  0  0  0  0  0  0  0
   10.7581   -3.1233   19.4720 N   0  0  0  0  0  0  0  0  0  0  0  0
    9.9571   -4.0573   16.8866 C   0  0  0  0  0  0  0  0  0  0  0  0
    7.6213   -6.5618   16.0087 C   0  0  0  0  0  0  0  0  0  0  0  0
   10.8583   -2.6527   20.7222 C   0  0  0  0  0  0  0  0  0  0  0  0
   10.6412   -3.5089   21.7936 C   0  0  0  0  0  0  0  0  0  0  0  0
   10.4972   -3.8968   24.1589 C   0  0  0  0  0  0  0  0  0  0  0  0
    5.9260   -8.2736   16.5517 C   0  0  0  0  0  0  0  0  0  0  0  0
    3.8816   -9.1166   17.2493 C   0  0  0  0  0  0  0  0  0  0  0  0
   10.1297   -1.6575   23.2324 C   0  0  0  0  0  0  0  0  0  0  0  0
    9.4684   -1.6929   26.7263 F   0  0  0  0  0  0  0  0  0  0  0  0
    7.7963   -7.7906   17.9837 C   0  0  0  0  0  0  0  0  0  0  0  0
   10.5884   -3.0725   16.7902 O   0  0  0  0  0  0  0  0  0  0  0  0
   10.4323   -5.3494   20.3516 C   0  0  0  0  0  0  0  0  0  0  0  0
    7.1156   -7.5454   16.8218 C   0  0  0  0  0  0  0  0  0  0  0  0
   10.3885   -4.4388   19.2773 C   0  0  0  0  0  0  0  0  0  0  0  0
    4.5160   -9.3822   15.0841 C   0  0  0  0  0  0  0  0  0  0  0  0
  1  3  4  0
  1 24  4  0
  2  6  4  0
  2 15  4  0
  3  5  4  0
  3  6  4  0
  4 21  4  0
  4 29  4  0
  5 15  4  0
  5 28  1  0
  6 16  4  0
  7 18  4  0
  7 26  4  0
  8 18  1  0
  8 19  4  0
  8 22  4  0
  9 12  4  0
  9 19  4  0
 10 12  4  0
 10 22  4  0
 11 20  4  0
 11 21  4  0
 12 23  1  0
 13 20  4  0
 13 29  4  0
 14 17  4  0
 14 28  4  0
 15 25  2  0
 16 27  4  0
 17 18  4  0
 20 27  1  0
 24 27  4  0
 26 28  4  0
M  END
$$$$

 Created by Python create_sdf_string function

 29 33  0  0  0  0  0  0  0  0999 V2000
    8.8270   -7.0288   18.4251 C   0  0  0  0  0  0  0  0  0  0  0  0
    9.1576   -4.6236   15.8860 O   0  0  0  0  0  0  0  0  0  0  0  0
    9.1509   -5.9108   17.7177 C   0  0  0  0  0  0  0  0  0  0  0  0
    3.6373   -9.5349   16.0582 N   0  0  0  0  0  0  0  0  0  0  0  0
    9.9275   -4.8001   18.0438 N   0  0  0  0  0  0  0  0  0  0  0  0
    8.5908   -5.7425   16.4412 C   0  0  0  0  0  0  0  0  0  0  0  0
   10.5993   -4.8981   21.6068 C   0  0  0  0  0  0  0  0  0  0  0  0
   10.4258   -3.0106   23.0998 C   0  0  0  0  0  0  0  0  0  0  0  0
   10.2148   -3.4364   25.4200 C   0  0  0  0  0  0  0  0  0  0  0  0
    9.7853   -1.1840   24.4927 C   0  0  0  0  0  0  0  0  0  0  0  0
    5.0276   -8.5227   17.5352 C   0  0  0  0  0  0  0  0  0  0  0  0
    9.8187   -2.0895   25.5800 C   0  0  0  0  0  0  0  0  0  0  0  0
    5.6473   -8.7216   15.3158 C   0  0  0  0  0  0  0  0  0  0  0  0
   10.7581   -3.1233   19.4720 N   0  0  0  0  0  0  0  0  0  0  0  0
    9.9571   -4.0573   16.8866 C   0  0  0  0  0  0  0  0  0  0  0  0
    7.6213   -6.5618   16.0087 C   0  0  0  0  0  0  0  0  0  0  0  0
   10.8583   -2.6527   20.7222 C   0  0  0  0  0  0  0  0  0  0  0  0
   10.6412   -3.5089   21.7936 C   0  0  0  0  0  0  0  0  0  0  0  0
   10.4972   -3.8968   24.1589 C   0  0  0  0  0  0  0  0  0  0  0  0
    5.9260   -8.2736   16.5517 C   0  0  0  0  0  0  0  0  0  0  0  0
    3.8816   -9.1166   17.2493 C   0  0  0  0  0  0  0  0  0  0  0  0
   10.1297   -1.6575   23.2324 C   0  0  0  0  0  0  0  0  0  0  0  0
    9.4684   -1.6929   26.7263 F   0  0  0  0  0  0  0  0  0  0  0  0
    7.7963   -7.7906   17.9837 C   0  0  0  0  0  0  0  0  0  0  0  0
   10.5884   -3.0725   16.7902 O   0  0  0  0  0  0  0  0  0  0  0  0
   10.4323   -5.3494   20.3516 C   0  0  0  0  0  0  0  0  0  0  0  0
    7.1156   -7.5454   16.8218 C   0  0  0  0  0  0  0  0  0  0  0  0
   10.3885   -4.4388   19.2773 C   0  0  0  0  0  0  0  0  0  0  0  0
    4.5160   -9.3822   15.0841 C   0  0  0  0  0  0  0  0  0  0  0  0
  1  3  4  0
  1 24  4  0
  2  6  4  0
  2 15  4  0
  3  5  4  0
  3  6  4  0
  4 21  4  0
  4 29  4  0
  5 15  4  0
  5 28  1  0
  6 16  4  0
  7 18  4  0
  7 26  4  0
  8 18  1  0
  8 19  4  0
  8 22  4  0
  9 12  4  0
  9 19  4  0
 10 12  4  0
 10 22  4  0
 11 20  4  0
 11 21  4  0
 12 23  1  0
 13 20  4  0
 13 29  4  0
 14 17  4  0
 14 28  4  0
 15 25  2  0
 16 27  4  0
 17 18  4  0
 20 27  1  0
 24 27  4  0
 26 28  4  0
M  END
$$$$

 Created by Python create_sdf_string function

 29 33  0  0  0  0  0  0  0  0999 V2000
    8.8270   -7.0288   18.4251 C   0  0  0  0  0  0  0  0  0  0  0  0
    9.1576   -4.6236   15.8860 O   0  0  0  0  0  0  0  0  0  0  0  0
    9.1509   -5.9108   17.7177 C   0  0  0  0  0  0  0  0  0  0  0  0
    3.6373   -9.5349   16.0582 N   0  0  0  0  0  0  0  0  0  0  0  0
    9.9275   -4.8001   18.0438 N   0  0  0  0  0  0  0  0  0  0  0  0
    8.5908   -5.7425   16.4412 C   0  0  0  0  0  0  0  0  0  0  0  0
   10.5993   -4.8981   21.6068 C   0  0  0  0  0  0  0  0  0  0  0  0
   10.4258   -3.0106   23.0998 C   0  0  0  0  0  0  0  0  0  0  0  0
   10.2148   -3.4364   25.4200 C   0  0  0  0  0  0  0  0  0  0  0  0
    9.7853   -1.1840   24.4927 C   0  0  0  0  0  0  0  0  0  0  0  0
    5.0276   -8.5227   17.5352 C   0  0  0  0  0  0  0  0  0  0  0  0
    9.8187   -2.0895   25.5800 C   0  0  0  0  0  0  0  0  0  0  0  0
    5.6473   -8.7216   15.3158 C   0  0  0  0  0  0  0  0  0  0  0  0
   10.7581   -3.1233   19.4720 N   0  0  0  0  0  0  0  0  0  0  0  0
    9.9571   -4.0573   16.8866 C   0  0  0  0  0  0  0  0  0  0  0  0
    7.6213   -6.5618   16.0087 C   0  0  0  0  0  0  0  0  0  0  0  0
   10.8583   -2.6527   20.7222 C   0  0  0  0  0  0  0  0  0  0  0  0
   10.6412   -3.5089   21.7936 C   0  0  0  0  0  0  0  0  0  0  0  0
   10.4972   -3.8968   24.1589 C   0  0  0  0  0  0  0  0  0  0  0  0
    5.9260   -8.2736   16.5517 C   0  0  0  0  0  0  0  0  0  0  0  0
    3.8816   -9.1166   17.2493 C   0  0  0  0  0  0  0  0  0  0  0  0
   10.1297   -1.6575   23.2324 C   0  0  0  0  0  0  0  0  0  0  0  0
    9.4684   -1.6929   26.7263 F   0  0  0  0  0  0  0  0  0  0  0  0
    7.7963   -7.7906   17.9837 C   0  0  0  0  0  0  0  0  0  0  0  0
   10.5884   -3.0725   16.7902 O   0  0  0  0  0  0  0  0  0  0  0  0
   10.4323   -5.3494   20.3516 C   0  0  0  0  0  0  0  0  0  0  0  0
    7.1156   -7.5454   16.8218 C   0  0  0  0  0  0  0  0  0  0  0  0
   10.3885   -4.4388   19.2773 C   0  0  0  0  0  0  0  0  0  0  0  0
    4.5160   -9.3822   15.0841 C   0  0  0  0  0  0  0  0  0  0  0  0
  1  3  4  0
  1 24  4  0
  2  6  4  0
  2 15  4  0
  3  5  4  0
  3  6  4  0
  4 21  4  0
  4 29  4  0
  5 15  4  0
  5 28  1  0
  6 16  4  0
  7 18  4  0
  7 26  4  0
  8 18  1  0
  8 19  4  0
  8 22  4  0
  9 12  4  0
  9 19  4  0
 10 12  4  0
 10 22  4  0
 11 20  4  0
 11 21  4  0
 12 23  1  0
 13 20  4  0
 13 29  4  0
 14 17  4  0
 14 28  4  0
 15 25  2  0
 16 27  4  0
 17 18  4  0
 20 27  1  0
 24 27  4  0
 26 28  4  0
M  END
$$$$

 Created by Python create_sdf_string function

 29 33  0  0  0  0  0  0  0  0999 V2000
    8.8270   -7.0288   18.4251 C   0  0  0  0  0  0  0  0  0  0  0  0
    9.1576   -4.6236   15.8860 O   0  0  0  0  0  0  0  0  0  0  0  0
    9.1509   -5.9108   17.7177 C   0  0  0  0  0  0  0  0  0  0  0  0
    3.6373   -9.5349   16.0582 N   0  0  0  0  0  0  0  0  0  0  0  0
    9.9275   -4.8001   18.0438 N   0  0  0  0  0  0  0  0  0  0  0  0
    8.5908   -5.7425   16.4412 C   0  0  0  0  0  0  0  0  0  0  0  0
   10.5993   -4.8981   21.6068 C   0  0  0  0  0  0  0  0  0  0  0  0
   10.4258   -3.0106   23.0998 C   0  0  0  0  0  0  0  0  0  0  0  0
   10.2148   -3.4364   25.4200 C   0  0  0  0  0  0  0  0  0  0  0  0
    9.7853   -1.1840   24.4927 C   0  0  0  0  0  0  0  0  0  0  0  0
    5.0276   -8.5227   17.5352 C   0  0  0  0  0  0  0  0  0  0  0  0
    9.8187   -2.0895   25.5800 C   0  0  0  0  0  0  0  0  0  0  0  0
    5.6473   -8.7216   15.3158 C   0  0  0  0  0  0  0  0  0  0  0  0
   10.7581   -3.1233   19.4720 N   0  0  0  0  0  0  0  0  0  0  0  0
    9.9571   -4.0573   16.8866 C   0  0  0  0  0  0  0  0  0  0  0  0
    7.6213   -6.5618   16.0087 C   0  0  0  0  0  0  0  0  0  0  0  0
   10.8583   -2.6527   20.7222 C   0  0  0  0  0  0  0  0  0  0  0  0
   10.6412   -3.5089   21.7936 C   0  0  0  0  0  0  0  0  0  0  0  0
   10.4972   -3.8968   24.1589 C   0  0  0  0  0  0  0  0  0  0  0  0
    5.9260   -8.2736   16.5517 C   0  0  0  0  0  0  0  0  0  0  0  0
    3.8816   -9.1166   17.2493 C   0  0  0  0  0  0  0  0  0  0  0  0
   10.1297   -1.6575   23.2324 C   0  0  0  0  0  0  0  0  0  0  0  0
    9.4684   -1.6929   26.7263 F   0  0  0  0  0  0  0  0  0  0  0  0
    7.7963   -7.7906   17.9837 C   0  0  0  0  0  0  0  0  0  0  0  0
   10.5884   -3.0725   16.7902 O   0  0  0  0  0  0  0  0  0  0  0  0
   10.4323   -5.3494   20.3516 C   0  0  0  0  0  0  0  0  0  0  0  0
    7.1156   -7.5454   16.8218 C   0  0  0  0  0  0  0  0  0  0  0  0
   10.3885   -4.4388   19.2773 C   0  0  0  0  0  0  0  0  0  0  0  0
    4.5160   -9.3822   15.0841 C   0  0  0  0  0  0  0  0  0  0  0  0
  1  3  4  0
  1 24  4  0
  2  6  4  0
  2 15  4  0
  3  5  4  0
  3  6  4  0
  4 21  4  0
  4 29  4  0
  5 15  4  0
  5 28  1  0
  6 16  4  0
  7 18  4  0
  7 26  4  0
  8 18  1  0
  8 19  4  0
  8 22  4  0
  9 12  4  0
  9 19  4  0
 10 12  4  0
 10 22  4  0
 11 20  4  0
 11 21  4  0
 12 23  1  0
 13 20  4  0
 13 29  4  0
 14 17  4  0
 14 28  4  0
 15 25  2  0
 16 27  4  0
 17 18  4  0
 20 27  1  0
 24 27  4  0
 26 28  4  0
M  END
$$$$

 Created by Python create_sdf_string function

 29 33  0  0  0  0  0  0  0  0999 V2000
    8.8270   -7.0288   18.4251 C   0  0  0  0  0  0  0  0  0  0  0  0
    9.1576   -4.6236   15.8860 O   0  0  0  0  0  0  0  0  0  0  0  0
    9.1509   -5.9108   17.7177 C   0  0  0  0  0  0  0  0  0  0  0  0
    3.6373   -9.5349   16.0582 N   0  0  0  0  0  0  0  0  0  0  0  0
    9.9275   -4.8001   18.0438 N   0  0  0  0  0  0  0  0  0  0  0  0
    8.5908   -5.7425   16.4412 C   0  0  0  0  0  0  0  0  0  0  0  0
   10.5993   -4.8981   21.6068 C   0  0  0  0  0  0  0  0  0  0  0  0
   10.4258   -3.0106   23.0998 C   0  0  0  0  0  0  0  0  0  0  0  0
   10.2148   -3.4364   25.4200 C   0  0  0  0  0  0  0  0  0  0  0  0
    9.7853   -1.1840   24.4927 C   0  0  0  0  0  0  0  0  0  0  0  0
    5.0276   -8.5227   17.5352 C   0  0  0  0  0  0  0  0  0  0  0  0
    9.8187   -2.0895   25.5800 C   0  0  0  0  0  0  0  0  0  0  0  0
    5.6473   -8.7216   15.3158 C   0  0  0  0  0  0  0  0  0  0  0  0
   10.7581   -3.1233   19.4720 N   0  0  0  0  0  0  0  0  0  0  0  0
    9.9571   -4.0573   16.8866 C   0  0  0  0  0  0  0  0  0  0  0  0
    7.6213   -6.5618   16.0087 C   0  0  0  0  0  0  0  0  0  0  0  0
   10.8583   -2.6527   20.7222 C   0  0  0  0  0  0  0  0  0  0  0  0
   10.6412   -3.5089   21.7936 C   0  0  0  0  0  0  0  0  0  0  0  0
   10.4972   -3.8968   24.1589 C   0  0  0  0  0  0  0  0  0  0  0  0
    5.9260   -8.2736   16.5517 C   0  0  0  0  0  0  0  0  0  0  0  0
    3.8816   -9.1166   17.2493 C   0  0  0  0  0  0  0  0  0  0  0  0
   10.1297   -1.6575   23.2324 C   0  0  0  0  0  0  0  0  0  0  0  0
    9.4684   -1.6929   26.7263 F   0  0  0  0  0  0  0  0  0  0  0  0
    7.7963   -7.7906   17.9837 C   0  0  0  0  0  0  0  0  0  0  0  0
   10.5884   -3.0725   16.7902 O   0  0  0  0  0  0  0  0  0  0  0  0
   10.4323   -5.3494   20.3516 C   0  0  0  0  0  0  0  0  0  0  0  0
    7.1156   -7.5454   16.8218 C   0  0  0  0  0  0  0  0  0  0  0  0
   10.3885   -4.4388   19.2773 C   0  0  0  0  0  0  0  0  0  0  0  0
    4.5160   -9.3822   15.0841 C   0  0  0  0  0  0  0  0  0  0  0  0
  1  3  4  0
  1 24  4  0
  2  6  4  0
  2 15  4  0
  3  5  4  0
  3  6  4  0
  4 21  4  0
  4 29  4  0
  5 15  4  0
  5 28  1  0
  6 16  4  0
  7 18  4  0
  7 26  4  0
  8 18  1  0
  8 19  4  0
  8 22  4  0
  9 12  4  0
  9 19  4  0
 10 12  4  0
 10 22  4  0
 11 20  4  0
 11 21  4  0
 12 23  1  0
 13 20  4  0
 13 29  4  0
 14 17  4  0
 14 28  4  0
 15 25  2  0
 16 27  4  0
 17 18  4  0
 20 27  1  0
 24 27  4  0
 26 28  4  0
M  END
$$$$

 Created by Python create_sdf_string function

 29 33  0  0  0  0  0  0  0  0999 V2000
    8.8270   -7.0288   18.4251 C   0  0  0  0  0  0  0  0  0  0  0  0
    9.1576   -4.6236   15.8860 O   0  0  0  0  0  0  0  0  0  0  0  0
    9.1509   -5.9108   17.7177 C   0  0  0  0  0  0  0  0  0  0  0  0
    3.6373   -9.5349   16.0582 N   0  0  0  0  0  0  0  0  0  0  0  0
    9.9275   -4.8001   18.0438 N   0  0  0  0  0  0  0  0  0  0  0  0
    8.5908   -5.7425   16.4412 C   0  0  0  0  0  0  0  0  0  0  0  0
   10.5993   -4.8981   21.6068 C   0  0  0  0  0  0  0  0  0  0  0  0
   10.4258   -3.0106   23.0998 C   0  0  0  0  0  0  0  0  0  0  0  0
   10.2148   -3.4364   25.4200 C   0  0  0  0  0  0  0  0  0  0  0  0
    9.7853   -1.1840   24.4927 C   0  0  0  0  0  0  0  0  0  0  0  0
    5.0276   -8.5227   17.5352 C   0  0  0  0  0  0  0  0  0  0  0  0
    9.8187   -2.0895   25.5800 C   0  0  0  0  0  0  0  0  0  0  0  0
    5.6473   -8.7216   15.3158 C   0  0  0  0  0  0  0  0  0  0  0  0
   10.7581   -3.1233   19.4720 N   0  0  0  0  0  0  0  0  0  0  0  0
    9.9571   -4.0573   16.8866 C   0  0  0  0  0  0  0  0  0  0  0  0
    7.6213   -6.5618   16.0087 C   0  0  0  0  0  0  0  0  0  0  0  0
   10.8583   -2.6527   20.7222 C   0  0  0  0  0  0  0  0  0  0  0  0
   10.6412   -3.5089   21.7936 C   0  0  0  0  0  0  0  0  0  0  0  0
   10.4972   -3.8968   24.1589 C   0  0  0  0  0  0  0  0  0  0  0  0
    5.9260   -8.2736   16.5517 C   0  0  0  0  0  0  0  0  0  0  0  0
    3.8816   -9.1166   17.2493 C   0  0  0  0  0  0  0  0  0  0  0  0
   10.1297   -1.6575   23.2324 C   0  0  0  0  0  0  0  0  0  0  0  0
    9.4684   -1.6929   26.7263 F   0  0  0  0  0  0  0  0  0  0  0  0
    7.7963   -7.7906   17.9837 C   0  0  0  0  0  0  0  0  0  0  0  0
   10.5884   -3.0725   16.7902 O   0  0  0  0  0  0  0  0  0  0  0  0
   10.4323   -5.3494   20.3516 C   0  0  0  0  0  0  0  0  0  0  0  0
    7.1156   -7.5454   16.8218 C   0  0  0  0  0  0  0  0  0  0  0  0
   10.3885   -4.4388   19.2773 C   0  0  0  0  0  0  0  0  0  0  0  0
    4.5160   -9.3822   15.0841 C   0  0  0  0  0  0  0  0  0  0  0  0
  1  3  4  0
  1 24  4  0
  2  6  4  0
  2 15  4  0
  3  5  4  0
  3  6  4  0
  4 21  4  0
  4 29  4  0
  5 15  4  0
  5 28  1  0
  6 16  4  0
  7 18  4  0
  7 26  4  0
  8 18  1  0
  8 19  4  0
  8 22  4  0
  9 12  4  0
  9 19  4  0
 10 12  4  0
 10 22  4  0
 11 20  4  0
 11 21  4  0
 12 23  1  0
 13 20  4  0
 13 29  4  0
 14 17  4  0
 14 28  4  0
 15 25  2  0
 16 27  4  0
 17 18  4  0
 20 27  1  0
 24 27  4  0
 26 28  4  0
M  END
$$$$

 Created by Python create_sdf_string function

 29 33  0  0  0  0  0  0  0  0999 V2000
    8.8270   -7.0288   18.4251 C   0  0  0  0  0  0  0  0  0  0  0  0
    9.1576   -4.6236   15.8860 O   0  0  0  0  0  0  0  0  0  0  0  0
    9.1509   -5.9108   17.7177 C   0  0  0  0  0  0  0  0  0  0  0  0
    3.6373   -9.5349   16.0582 N   0  0  0  0  0  0  0  0  0  0  0  0
    9.9275   -4.8001   18.0438 N   0  0  0  0  0  0  0  0  0  0  0  0
    8.5908   -5.7425   16.4412 C   0  0  0  0  0  0  0  0  0  0  0  0
   10.5993   -4.8981   21.6068 C   0  0  0  0  0  0  0  0  0  0  0  0
   10.4258   -3.0106   23.0998 C   0  0  0  0  0  0  0  0  0  0  0  0
   10.2148   -3.4364   25.4200 C   0  0  0  0  0  0  0  0  0  0  0  0
    9.7853   -1.1840   24.4927 C   0  0  0  0  0  0  0  0  0  0  0  0
    5.0276   -8.5227   17.5352 C   0  0  0  0  0  0  0  0  0  0  0  0
    9.8187   -2.0895   25.5800 C   0  0  0  0  0  0  0  0  0  0  0  0
    5.6473   -8.7216   15.3158 C   0  0  0  0  0  0  0  0  0  0  0  0
   10.7581   -3.1233   19.4720 N   0  0  0  0  0  0  0  0  0  0  0  0
    9.9571   -4.0573   16.8866 C   0  0  0  0  0  0  0  0  0  0  0  0
    7.6213   -6.5618   16.0087 C   0  0  0  0  0  0  0  0  0  0  0  0
   10.8583   -2.6527   20.7222 C   0  0  0  0  0  0  0  0  0  0  0  0
   10.6412   -3.5089   21.7936 C   0  0  0  0  0  0  0  0  0  0  0  0
   10.4972   -3.8968   24.1589 C   0  0  0  0  0  0  0  0  0  0  0  0
    5.9260   -8.2736   16.5517 C   0  0  0  0  0  0  0  0  0  0  0  0
    3.8816   -9.1166   17.2493 C   0  0  0  0  0  0  0  0  0  0  0  0
   10.1297   -1.6575   23.2324 C   0  0  0  0  0  0  0  0  0  0  0  0
    9.4684   -1.6929   26.7263 F   0  0  0  0  0  0  0  0  0  0  0  0
    7.7963   -7.7906   17.9837 C   0  0  0  0  0  0  0  0  0  0  0  0
   10.5884   -3.0725   16.7902 O   0  0  0  0  0  0  0  0  0  0  0  0
   10.4323   -5.3494   20.3516 C   0  0  0  0  0  0  0  0  0  0  0  0
    7.1156   -7.5454   16.8218 C   0  0  0  0  0  0  0  0  0  0  0  0
   10.3885   -4.4388   19.2773 C   0  0  0  0  0  0  0  0  0  0  0  0
    4.5160   -9.3822   15.0841 C   0  0  0  0  0  0  0  0  0  0  0  0
  1  3  4  0
  1 24  4  0
  2  6  4  0
  2 15  4  0
  3  5  4  0
  3  6  4  0
  4 21  4  0
  4 29  4  0
  5 15  4  0
  5 28  1  0
  6 16  4  0
  7 18  4  0
  7 26  4  0
  8 18  1  0
  8 19  4  0
  8 22  4  0
  9 12  4  0
  9 19  4  0
 10 12  4  0
 10 22  4  0
 11 20  4  0
 11 21  4  0
 12 23  1  0
 13 20  4  0
 13 29  4  0
 14 17  4  0
 14 28  4  0
 15 25  2  0
 16 27  4  0
 17 18  4  0
 20 27  1  0
 24 27  4  0
 26 28  4  0
M  END
$$$$

 Created by Python create_sdf_string function

 29 33  0  0  0  0  0  0  0  0999 V2000
    8.8270   -7.0288   18.4251 C   0  0  0  0  0  0  0  0  0  0  0  0
    9.1576   -4.6236   15.8860 O   0  0  0  0  0  0  0  0  0  0  0  0
    9.1509   -5.9108   17.7177 C   0  0  0  0  0  0  0  0  0  0  0  0
    3.6373   -9.5349   16.0582 N   0  0  0  0  0  0  0  0  0  0  0  0
    9.9275   -4.8001   18.0438 N   0  0  0  0  0  0  0  0  0  0  0  0
    8.5908   -5.7425   16.4412 C   0  0  0  0  0  0  0  0  0  0  0  0
   10.5993   -4.8981   21.6068 C   0  0  0  0  0  0  0  0  0  0  0  0
   10.4258   -3.0106   23.0998 C   0  0  0  0  0  0  0  0  0  0  0  0
   10.2148   -3.4364   25.4200 C   0  0  0  0  0  0  0  0  0  0  0  0
    9.7853   -1.1840   24.4927 C   0  0  0  0  0  0  0  0  0  0  0  0
    5.0276   -8.5227   17.5352 C   0  0  0  0  0  0  0  0  0  0  0  0
    9.8187   -2.0895   25.5800 C   0  0  0  0  0  0  0  0  0  0  0  0
    5.6473   -8.7216   15.3158 C   0  0  0  0  0  0  0  0  0  0  0  0
   10.7581   -3.1233   19.4720 N   0  0  0  0  0  0  0  0  0  0  0  0
    9.9571   -4.0573   16.8866 C   0  0  0  0  0  0  0  0  0  0  0  0
    7.6213   -6.5618   16.0087 C   0  0  0  0  0  0  0  0  0  0  0  0
   10.8583   -2.6527   20.7222 C   0  0  0  0  0  0  0  0  0  0  0  0
   10.6412   -3.5089   21.7936 C   0  0  0  0  0  0  0  0  0  0  0  0
   10.4972   -3.8968   24.1589 C   0  0  0  0  0  0  0  0  0  0  0  0
    5.9260   -8.2736   16.5517 C   0  0  0  0  0  0  0  0  0  0  0  0
    3.8816   -9.1166   17.2493 C   0  0  0  0  0  0  0  0  0  0  0  0
   10.1297   -1.6575   23.2324 C   0  0  0  0  0  0  0  0  0  0  0  0
    9.4684   -1.6929   26.7263 F   0  0  0  0  0  0  0  0  0  0  0  0
    7.7963   -7.7906   17.9837 C   0  0  0  0  0  0  0  0  0  0  0  0
   10.5884   -3.0725   16.7902 O   0  0  0  0  0  0  0  0  0  0  0  0
   10.4323   -5.3494   20.3516 C   0  0  0  0  0  0  0  0  0  0  0  0
    7.1156   -7.5454   16.8218 C   0  0  0  0  0  0  0  0  0  0  0  0
   10.3885   -4.4388   19.2773 C   0  0  0  0  0  0  0  0  0  0  0  0
    4.5160   -9.3822   15.0841 C   0  0  0  0  0  0  0  0  0  0  0  0
  1  3  4  0
  1 24  4  0
  2  6  4  0
  2 15  4  0
  3  5  4  0
  3  6  4  0
  4 21  4  0
  4 29  4  0
  5 15  4  0
  5 28  1  0
  6 16  4  0
  7 18  4  0
  7 26  4  0
  8 18  1  0
  8 19  4  0
  8 22  4  0
  9 12  4  0
  9 19  4  0
 10 12  4  0
 10 22  4  0
 11 20  4  0
 11 21  4  0
 12 23  1  0
 13 20  4  0
 13 29  4  0
 14 17  4  0
 14 28  4  0
 15 25  2  0
 16 27  4  0
 17 18  4  0
 20 27  1  0
 24 27  4  0
 26 28  4  0
M  END
$$$$

 Created by Python create_sdf_string function

 29 33  0  0  0  0  0  0  0  0999 V2000
    8.8270   -7.0288   18.4251 C   0  0  0  0  0  0  0  0  0  0  0  0
    9.1576   -4.6236   15.8860 O   0  0  0  0  0  0  0  0  0  0  0  0
    9.1509   -5.9108   17.7177 C   0  0  0  0  0  0  0  0  0  0  0  0
    3.6373   -9.5349   16.0582 N   0  0  0  0  0  0  0  0  0  0  0  0
    9.9275   -4.8001   18.0438 N   0  0  0  0  0  0  0  0  0  0  0  0
    8.5908   -5.7425   16.4412 C   0  0  0  0  0  0  0  0  0  0  0  0
   10.5993   -4.8981   21.6068 C   0  0  0  0  0  0  0  0  0  0  0  0
   10.4258   -3.0106   23.0998 C   0  0  0  0  0  0  0  0  0  0  0  0
   10.2148   -3.4364   25.4200 C   0  0  0  0  0  0  0  0  0  0  0  0
    9.7853   -1.1840   24.4927 C   0  0  0  0  0  0  0  0  0  0  0  0
    5.0276   -8.5227   17.5352 C   0  0  0  0  0  0  0  0  0  0  0  0
    9.8187   -2.0895   25.5800 C   0  0  0  0  0  0  0  0  0  0  0  0
    5.6473   -8.7216   15.3158 C   0  0  0  0  0  0  0  0  0  0  0  0
   10.7581   -3.1233   19.4720 N   0  0  0  0  0  0  0  0  0  0  0  0
    9.9571   -4.0573   16.8866 C   0  0  0  0  0  0  0  0  0  0  0  0
    7.6213   -6.5618   16.0087 C   0  0  0  0  0  0  0  0  0  0  0  0
   10.8583   -2.6527   20.7222 C   0  0  0  0  0  0  0  0  0  0  0  0
   10.6412   -3.5089   21.7936 C   0  0  0  0  0  0  0  0  0  0  0  0
   10.4972   -3.8968   24.1589 C   0  0  0  0  0  0  0  0  0  0  0  0
    5.9260   -8.2736   16.5517 C   0  0  0  0  0  0  0  0  0  0  0  0
    3.8816   -9.1166   17.2493 C   0  0  0  0  0  0  0  0  0  0  0  0
   10.1297   -1.6575   23.2324 C   0  0  0  0  0  0  0  0  0  0  0  0
    9.4684   -1.6929   26.7263 F   0  0  0  0  0  0  0  0  0  0  0  0
    7.7963   -7.7906   17.9837 C   0  0  0  0  0  0  0  0  0  0  0  0
   10.5884   -3.0725   16.7902 O   0  0  0  0  0  0  0  0  0  0  0  0
   10.4323   -5.3494   20.3516 C   0  0  0  0  0  0  0  0  0  0  0  0
    7.1156   -7.5454   16.8218 C   0  0  0  0  0  0  0  0  0  0  0  0
   10.3885   -4.4388   19.2773 C   0  0  0  0  0  0  0  0  0  0  0  0
    4.5160   -9.3822   15.0841 C   0  0  0  0  0  0  0  0  0  0  0  0
  1  3  4  0
  1 24  4  0
  2  6  4  0
  2 15  4  0
  3  5  4  0
  3  6  4  0
  4 21  4  0
  4 29  4  0
  5 15  4  0
  5 28  1  0
  6 16  4  0
  7 18  4  0
  7 26  4  0
  8 18  1  0
  8 19  4  0
  8 22  4  0
  9 12  4  0
  9 19  4  0
 10 12  4  0
 10 22  4  0
 11 20  4  0
 11 21  4  0
 12 23  1  0
 13 20  4  0
 13 29  4  0
 14 17  4  0
 14 28  4  0
 15 25  2  0
 16 27  4  0
 17 18  4  0
 20 27  1  0
 24 27  4  0
 26 28  4  0
M  END
$$$$

 Created by Python create_sdf_string function

 29 33  0  0  0  0  0  0  0  0999 V2000
    8.8270   -7.0288   18.4251 C   0  0  0  0  0  0  0  0  0  0  0  0
    9.1576   -4.6236   15.8860 O   0  0  0  0  0  0  0  0  0  0  0  0
    9.1509   -5.9108   17.7177 C   0  0  0  0  0  0  0  0  0  0  0  0
    3.6373   -9.5349   16.0582 N   0  0  0  0  0  0  0  0  0  0  0  0
    9.9275   -4.8001   18.0438 N   0  0  0  0  0  0  0  0  0  0  0  0
    8.5908   -5.7425   16.4412 C   0  0  0  0  0  0  0  0  0  0  0  0
   10.5993   -4.8981   21.6068 C   0  0  0  0  0  0  0  0  0  0  0  0
   10.4258   -3.0106   23.0998 C   0  0  0  0  0  0  0  0  0  0  0  0
   10.2148   -3.4364   25.4200 C   0  0  0  0  0  0  0  0  0  0  0  0
    9.7853   -1.1840   24.4927 C   0  0  0  0  0  0  0  0  0  0  0  0
    5.0276   -8.5227   17.5352 C   0  0  0  0  0  0  0  0  0  0  0  0
    9.8187   -2.0895   25.5800 C   0  0  0  0  0  0  0  0  0  0  0  0
    5.6473   -8.7216   15.3158 C   0  0  0  0  0  0  0  0  0  0  0  0
   10.7581   -3.1233   19.4720 N   0  0  0  0  0  0  0  0  0  0  0  0
    9.9571   -4.0573   16.8866 C   0  0  0  0  0  0  0  0  0  0  0  0
    7.6213   -6.5618   16.0087 C   0  0  0  0  0  0  0  0  0  0  0  0
   10.8583   -2.6527   20.7222 C   0  0  0  0  0  0  0  0  0  0  0  0
   10.6412   -3.5089   21.7936 C   0  0  0  0  0  0  0  0  0  0  0  0
   10.4972   -3.8968   24.1589 C   0  0  0  0  0  0  0  0  0  0  0  0
    5.9260   -8.2736   16.5517 C   0  0  0  0  0  0  0  0  0  0  0  0
    3.8816   -9.1166   17.2493 C   0  0  0  0  0  0  0  0  0  0  0  0
   10.1297   -1.6575   23.2324 C   0  0  0  0  0  0  0  0  0  0  0  0
    9.4684   -1.6929   26.7263 F   0  0  0  0  0  0  0  0  0  0  0  0
    7.7963   -7.7906   17.9837 C   0  0  0  0  0  0  0  0  0  0  0  0
   10.5884   -3.0725   16.7902 O   0  0  0  0  0  0  0  0  0  0  0  0
   10.4323   -5.3494   20.3516 C   0  0  0  0  0  0  0  0  0  0  0  0
    7.1156   -7.5454   16.8218 C   0  0  0  0  0  0  0  0  0  0  0  0
   10.3885   -4.4388   19.2773 C   0  0  0  0  0  0  0  0  0  0  0  0
    4.5160   -9.3822   15.0841 C   0  0  0  0  0  0  0  0  0  0  0  0
  1  3  4  0
  1 24  4  0
  2  6  4  0
  2 15  4  0
  3  5  4  0
  3  6  4  0
  4 21  4  0
  4 29  4  0
  5 15  4  0
  5 28  1  0
  6 16  4  0
  7 18  4  0
  7 26  4  0
  8 18  1  0
  8 19  4  0
  8 22  4  0
  9 12  4  0
  9 19  4  0
 10 12  4  0
 10 22  4  0
 11 20  4  0
 11 21  4  0
 12 23  1  0
 13 20  4  0
 13 29  4  0
 14 17  4  0
 14 28  4  0
 15 25  2  0
 16 27  4  0
 17 18  4  0
 20 27  1  0
 24 27  4  0
 26 28  4  0
M  END
$$$$

 Created by Python create_sdf_string function

 29 33  0  0  0  0  0  0  0  0999 V2000
    8.8270   -7.0288   18.4251 C   0  0  0  0  0  0  0  0  0  0  0  0
    9.1576   -4.6236   15.8860 O   0  0  0  0  0  0  0  0  0  0  0  0
    9.1509   -5.9108   17.7177 C   0  0  0  0  0  0  0  0  0  0  0  0
    3.6373   -9.5349   16.0582 N   0  0  0  0  0  0  0  0  0  0  0  0
    9.9275   -4.8001   18.0438 N   0  0  0  0  0  0  0  0  0  0  0  0
    8.5908   -5.7425   16.4412 C   0  0  0  0  0  0  0  0  0  0  0  0
   10.5993   -4.8981   21.6068 C   0  0  0  0  0  0  0  0  0  0  0  0
   10.4258   -3.0106   23.0998 C   0  0  0  0  0  0  0  0  0  0  0  0
   10.2148   -3.4364   25.4200 C   0  0  0  0  0  0  0  0  0  0  0  0
    9.7853   -1.1840   24.4927 C   0  0  0  0  0  0  0  0  0  0  0  0
    5.0276   -8.5227   17.5352 C   0  0  0  0  0  0  0  0  0  0  0  0
    9.8187   -2.0895   25.5800 C   0  0  0  0  0  0  0  0  0  0  0  0
    5.6473   -8.7216   15.3158 C   0  0  0  0  0  0  0  0  0  0  0  0
   10.7581   -3.1233   19.4720 N   0  0  0  0  0  0  0  0  0  0  0  0
    9.9571   -4.0573   16.8866 C   0  0  0  0  0  0  0  0  0  0  0  0
    7.6213   -6.5618   16.0087 C   0  0  0  0  0  0  0  0  0  0  0  0
   10.8583   -2.6527   20.7222 C   0  0  0  0  0  0  0  0  0  0  0  0
   10.6412   -3.5089   21.7936 C   0  0  0  0  0  0  0  0  0  0  0  0
   10.4972   -3.8968   24.1589 C   0  0  0  0  0  0  0  0  0  0  0  0
    5.9260   -8.2736   16.5517 C   0  0  0  0  0  0  0  0  0  0  0  0
    3.8816   -9.1166   17.2493 C   0  0  0  0  0  0  0  0  0  0  0  0
   10.1297   -1.6575   23.2324 C   0  0  0  0  0  0  0  0  0  0  0  0
    9.4684   -1.6929   26.7263 F   0  0  0  0  0  0  0  0  0  0  0  0
    7.7963   -7.7906   17.9837 C   0  0  0  0  0  0  0  0  0  0  0  0
   10.5884   -3.0725   16.7902 O   0  0  0  0  0  0  0  0  0  0  0  0
   10.4323   -5.3494   20.3516 C   0  0  0  0  0  0  0  0  0  0  0  0
    7.1156   -7.5454   16.8218 C   0  0  0  0  0  0  0  0  0  0  0  0
   10.3885   -4.4388   19.2773 C   0  0  0  0  0  0  0  0  0  0  0  0
    4.5160   -9.3822   15.0841 C   0  0  0  0  0  0  0  0  0  0  0  0
  1  3  4  0
  1 24  4  0
  2  6  4  0
  2 15  4  0
  3  5  4  0
  3  6  4  0
  4 21  4  0
  4 29  4  0
  5 15  4  0
  5 28  1  0
  6 16  4  0
  7 18  4  0
  7 26  4  0
  8 18  1  0
  8 19  4  0
  8 22  4  0
  9 12  4  0
  9 19  4  0
 10 12  4  0
 10 22  4  0
 11 20  4  0
 11 21  4  0
 12 23  1  0
 13 20  4  0
 13 29  4  0
 14 17  4  0
 14 28  4  0
 15 25  2  0
 16 27  4  0
 17 18  4  0
 20 27  1  0
 24 27  4  0
 26 28  4  0
M  END
$$$$

 Created by Python create_sdf_string function

 29 33  0  0  0  0  0  0  0  0999 V2000
    8.8270   -7.0288   18.4251 C   0  0  0  0  0  0  0  0  0  0  0  0
    9.1576   -4.6236   15.8860 O   0  0  0  0  0  0  0  0  0  0  0  0
    9.1509   -5.9108   17.7177 C   0  0  0  0  0  0  0  0  0  0  0  0
    3.6373   -9.5349   16.0582 N   0  0  0  0  0  0  0  0  0  0  0  0
    9.9275   -4.8001   18.0438 N   0  0  0  0  0  0  0  0  0  0  0  0
    8.5908   -5.7425   16.4412 C   0  0  0  0  0  0  0  0  0  0  0  0
   10.5993   -4.8981   21.6068 C   0  0  0  0  0  0  0  0  0  0  0  0
   10.4258   -3.0106   23.0998 C   0  0  0  0  0  0  0  0  0  0  0  0
   10.2148   -3.4364   25.4200 C   0  0  0  0  0  0  0  0  0  0  0  0
    9.7853   -1.1840   24.4927 C   0  0  0  0  0  0  0  0  0  0  0  0
    5.0276   -8.5227   17.5352 C   0  0  0  0  0  0  0  0  0  0  0  0
    9.8187   -2.0895   25.5800 C   0  0  0  0  0  0  0  0  0  0  0  0
    5.6473   -8.7216   15.3158 C   0  0  0  0  0  0  0  0  0  0  0  0
   10.7581   -3.1233   19.4720 N   0  0  0  0  0  0  0  0  0  0  0  0
    9.9571   -4.0573   16.8866 C   0  0  0  0  0  0  0  0  0  0  0  0
    7.6213   -6.5618   16.0087 C   0  0  0  0  0  0  0  0  0  0  0  0
   10.8583   -2.6527   20.7222 C   0  0  0  0  0  0  0  0  0  0  0  0
   10.6412   -3.5089   21.7936 C   0  0  0  0  0  0  0  0  0  0  0  0
   10.4972   -3.8968   24.1589 C   0  0  0  0  0  0  0  0  0  0  0  0
    5.9260   -8.2736   16.5517 C   0  0  0  0  0  0  0  0  0  0  0  0
    3.8816   -9.1166   17.2493 C   0  0  0  0  0  0  0  0  0  0  0  0
   10.1297   -1.6575   23.2324 C   0  0  0  0  0  0  0  0  0  0  0  0
    9.4684   -1.6929   26.7263 F   0  0  0  0  0  0  0  0  0  0  0  0
    7.7963   -7.7906   17.9837 C   0  0  0  0  0  0  0  0  0  0  0  0
   10.5884   -3.0725   16.7902 O   0  0  0  0  0  0  0  0  0  0  0  0
   10.4323   -5.3494   20.3516 C   0  0  0  0  0  0  0  0  0  0  0  0
    7.1156   -7.5454   16.8218 C   0  0  0  0  0  0  0  0  0  0  0  0
   10.3885   -4.4388   19.2773 C   0  0  0  0  0  0  0  0  0  0  0  0
    4.5160   -9.3822   15.0841 C   0  0  0  0  0  0  0  0  0  0  0  0
  1  3  4  0
  1 24  4  0
  2  6  4  0
  2 15  4  0
  3  5  4  0
  3  6  4  0
  4 21  4  0
  4 29  4  0
  5 15  4  0
  5 28  1  0
  6 16  4  0
  7 18  4  0
  7 26  4  0
  8 18  1  0
  8 19  4  0
  8 22  4  0
  9 12  4  0
  9 19  4  0
 10 12  4  0
 10 22  4  0
 11 20  4  0
 11 21  4  0
 12 23  1  0
 13 20  4  0
 13 29  4  0
 14 17  4  0
 14 28  4  0
 15 25  2  0
 16 27  4  0
 17 18  4  0
 20 27  1  0
 24 27  4  0
 26 28  4  0
M  END
$$$$

 Created by Python create_sdf_string function

 29 33  0  0  0  0  0  0  0  0999 V2000
    8.8270   -7.0288   18.4251 C   0  0  0  0  0  0  0  0  0  0  0  0
    9.1576   -4.6236   15.8860 O   0  0  0  0  0  0  0  0  0  0  0  0
    9.1509   -5.9108   17.7177 C   0  0  0  0  0  0  0  0  0  0  0  0
    3.6373   -9.5349   16.0582 N   0  0  0  0  0  0  0  0  0  0  0  0
    9.9275   -4.8001   18.0438 N   0  0  0  0  0  0  0  0  0  0  0  0
    8.5908   -5.7425   16.4412 C   0  0  0  0  0  0  0  0  0  0  0  0
   10.5993   -4.8981   21.6068 C   0  0  0  0  0  0  0  0  0  0  0  0
   10.4258   -3.0106   23.0998 C   0  0  0  0  0  0  0  0  0  0  0  0
   10.2148   -3.4364   25.4200 C   0  0  0  0  0  0  0  0  0  0  0  0
    9.7853   -1.1840   24.4927 C   0  0  0  0  0  0  0  0  0  0  0  0
    5.0276   -8.5227   17.5352 C   0  0  0  0  0  0  0  0  0  0  0  0
    9.8187   -2.0895   25.5800 C   0  0  0  0  0  0  0  0  0  0  0  0
    5.6473   -8.7216   15.3158 C   0  0  0  0  0  0  0  0  0  0  0  0
   10.7581   -3.1233   19.4720 N   0  0  0  0  0  0  0  0  0  0  0  0
    9.9571   -4.0573   16.8866 C   0  0  0  0  0  0  0  0  0  0  0  0
    7.6213   -6.5618   16.0087 C   0  0  0  0  0  0  0  0  0  0  0  0
   10.8583   -2.6527   20.7222 C   0  0  0  0  0  0  0  0  0  0  0  0
   10.6412   -3.5089   21.7936 C   0  0  0  0  0  0  0  0  0  0  0  0
   10.4972   -3.8968   24.1589 C   0  0  0  0  0  0  0  0  0  0  0  0
    5.9260   -8.2736   16.5517 C   0  0  0  0  0  0  0  0  0  0  0  0
    3.8816   -9.1166   17.2493 C   0  0  0  0  0  0  0  0  0  0  0  0
   10.1297   -1.6575   23.2324 C   0  0  0  0  0  0  0  0  0  0  0  0
    9.4684   -1.6929   26.7263 F   0  0  0  0  0  0  0  0  0  0  0  0
    7.7963   -7.7906   17.9837 C   0  0  0  0  0  0  0  0  0  0  0  0
   10.5884   -3.0725   16.7902 O   0  0  0  0  0  0  0  0  0  0  0  0
   10.4323   -5.3494   20.3516 C   0  0  0  0  0  0  0  0  0  0  0  0
    7.1156   -7.5454   16.8218 C   0  0  0  0  0  0  0  0  0  0  0  0
   10.3885   -4.4388   19.2773 C   0  0  0  0  0  0  0  0  0  0  0  0
    4.5160   -9.3822   15.0841 C   0  0  0  0  0  0  0  0  0  0  0  0
  1  3  4  0
  1 24  4  0
  2  6  4  0
  2 15  4  0
  3  5  4  0
  3  6  4  0
  4 21  4  0
  4 29  4  0
  5 15  4  0
  5 28  1  0
  6 16  4  0
  7 18  4  0
  7 26  4  0
  8 18  1  0
  8 19  4  0
  8 22  4  0
  9 12  4  0
  9 19  4  0
 10 12  4  0
 10 22  4  0
 11 20  4  0
 11 21  4  0
 12 23  1  0
 13 20  4  0
 13 29  4  0
 14 17  4  0
 14 28  4  0
 15 25  2  0
 16 27  4  0
 17 18  4  0
 20 27  1  0
 24 27  4  0
 26 28  4  0
M  END
$$$$

 Created by Python create_sdf_string function

 29 33  0  0  0  0  0  0  0  0999 V2000
    8.8270   -7.0288   18.4251 C   0  0  0  0  0  0  0  0  0  0  0  0
    9.1576   -4.6236   15.8860 O   0  0  0  0  0  0  0  0  0  0  0  0
    9.1509   -5.9108   17.7177 C   0  0  0  0  0  0  0  0  0  0  0  0
    3.6373   -9.5349   16.0582 N   0  0  0  0  0  0  0  0  0  0  0  0
    9.9275   -4.8001   18.0438 N   0  0  0  0  0  0  0  0  0  0  0  0
    8.5908   -5.7425   16.4412 C   0  0  0  0  0  0  0  0  0  0  0  0
   10.5993   -4.8981   21.6068 C   0  0  0  0  0  0  0  0  0  0  0  0
   10.4258   -3.0106   23.0998 C   0  0  0  0  0  0  0  0  0  0  0  0
   10.2148   -3.4364   25.4200 C   0  0  0  0  0  0  0  0  0  0  0  0
    9.7853   -1.1840   24.4927 C   0  0  0  0  0  0  0  0  0  0  0  0
    5.0276   -8.5227   17.5352 C   0  0  0  0  0  0  0  0  0  0  0  0
    9.8187   -2.0895   25.5800 C   0  0  0  0  0  0  0  0  0  0  0  0
    5.6473   -8.7216   15.3158 C   0  0  0  0  0  0  0  0  0  0  0  0
   10.7581   -3.1233   19.4720 N   0  0  0  0  0  0  0  0  0  0  0  0
    9.9571   -4.0573   16.8866 C   0  0  0  0  0  0  0  0  0  0  0  0
    7.6213   -6.5618   16.0087 C   0  0  0  0  0  0  0  0  0  0  0  0
   10.8583   -2.6527   20.7222 C   0  0  0  0  0  0  0  0  0  0  0  0
   10.6412   -3.5089   21.7936 C   0  0  0  0  0  0  0  0  0  0  0  0
   10.4972   -3.8968   24.1589 C   0  0  0  0  0  0  0  0  0  0  0  0
    5.9260   -8.2736   16.5517 C   0  0  0  0  0  0  0  0  0  0  0  0
    3.8816   -9.1166   17.2493 C   0  0  0  0  0  0  0  0  0  0  0  0
   10.1297   -1.6575   23.2324 C   0  0  0  0  0  0  0  0  0  0  0  0
    9.4684   -1.6929   26.7263 F   0  0  0  0  0  0  0  0  0  0  0  0
    7.7963   -7.7906   17.9837 C   0  0  0  0  0  0  0  0  0  0  0  0
   10.5884   -3.0725   16.7902 O   0  0  0  0  0  0  0  0  0  0  0  0
   10.4323   -5.3494   20.3516 C   0  0  0  0  0  0  0  0  0  0  0  0
    7.1156   -7.5454   16.8218 C   0  0  0  0  0  0  0  0  0  0  0  0
   10.3885   -4.4388   19.2773 C   0  0  0  0  0  0  0  0  0  0  0  0
    4.5160   -9.3822   15.0841 C   0  0  0  0  0  0  0  0  0  0  0  0
  1  3  4  0
  1 24  4  0
  2  6  4  0
  2 15  4  0
  3  5  4  0
  3  6  4  0
  4 21  4  0
  4 29  4  0
  5 15  4  0
  5 28  1  0
  6 16  4  0
  7 18  4  0
  7 26  4  0
  8 18  1  0
  8 19  4  0
  8 22  4  0
  9 12  4  0
  9 19  4  0
 10 12  4  0
 10 22  4  0
 11 20  4  0
 11 21  4  0
 12 23  1  0
 13 20  4  0
 13 29  4  0
 14 17  4  0
 14 28  4  0
 15 25  2  0
 16 27  4  0
 17 18  4  0
 20 27  1  0
 24 27  4  0
 26 28  4  0
M  END
$$$$

 Created by Python create_sdf_string function

 29 33  0  0  0  0  0  0  0  0999 V2000
    8.8270   -7.0288   18.4251 C   0  0  0  0  0  0  0  0  0  0  0  0
    9.1576   -4.6236   15.8860 O   0  0  0  0  0  0  0  0  0  0  0  0
    9.1509   -5.9108   17.7177 C   0  0  0  0  0  0  0  0  0  0  0  0
    3.6373   -9.5349   16.0582 N   0  0  0  0  0  0  0  0  0  0  0  0
    9.9275   -4.8001   18.0438 N   0  0  0  0  0  0  0  0  0  0  0  0
    8.5908   -5.7425   16.4412 C   0  0  0  0  0  0  0  0  0  0  0  0
   10.5993   -4.8981   21.6068 C   0  0  0  0  0  0  0  0  0  0  0  0
   10.4258   -3.0106   23.0998 C   0  0  0  0  0  0  0  0  0  0  0  0
   10.2148   -3.4364   25.4200 C   0  0  0  0  0  0  0  0  0  0  0  0
    9.7853   -1.1840   24.4927 C   0  0  0  0  0  0  0  0  0  0  0  0
    5.0276   -8.5227   17.5352 C   0  0  0  0  0  0  0  0  0  0  0  0
    9.8187   -2.0895   25.5800 C   0  0  0  0  0  0  0  0  0  0  0  0
    5.6473   -8.7216   15.3158 C   0  0  0  0  0  0  0  0  0  0  0  0
   10.7581   -3.1233   19.4720 N   0  0  0  0  0  0  0  0  0  0  0  0
    9.9571   -4.0573   16.8866 C   0  0  0  0  0  0  0  0  0  0  0  0
    7.6213   -6.5618   16.0087 C   0  0  0  0  0  0  0  0  0  0  0  0
   10.8583   -2.6527   20.7222 C   0  0  0  0  0  0  0  0  0  0  0  0
   10.6412   -3.5089   21.7936 C   0  0  0  0  0  0  0  0  0  0  0  0
   10.4972   -3.8968   24.1589 C   0  0  0  0  0  0  0  0  0  0  0  0
    5.9260   -8.2736   16.5517 C   0  0  0  0  0  0  0  0  0  0  0  0
    3.8816   -9.1166   17.2493 C   0  0  0  0  0  0  0  0  0  0  0  0
   10.1297   -1.6575   23.2324 C   0  0  0  0  0  0  0  0  0  0  0  0
    9.4684   -1.6929   26.7263 F   0  0  0  0  0  0  0  0  0  0  0  0
    7.7963   -7.7906   17.9837 C   0  0  0  0  0  0  0  0  0  0  0  0
   10.5884   -3.0725   16.7902 O   0  0  0  0  0  0  0  0  0  0  0  0
   10.4323   -5.3494   20.3516 C   0  0  0  0  0  0  0  0  0  0  0  0
    7.1156   -7.5454   16.8218 C   0  0  0  0  0  0  0  0  0  0  0  0
   10.3885   -4.4388   19.2773 C   0  0  0  0  0  0  0  0  0  0  0  0
    4.5160   -9.3822   15.0841 C   0  0  0  0  0  0  0  0  0  0  0  0
  1  3  4  0
  1 24  4  0
  2  6  4  0
  2 15  4  0
  3  5  4  0
  3  6  4  0
  4 21  4  0
  4 29  4  0
  5 15  4  0
  5 28  1  0
  6 16  4  0
  7 18  4  0
  7 26  4  0
  8 18  1  0
  8 19  4  0
  8 22  4  0
  9 12  4  0
  9 19  4  0
 10 12  4  0
 10 22  4  0
 11 20  4  0
 11 21  4  0
 12 23  1  0
 13 20  4  0
 13 29  4  0
 14 17  4  0
 14 28  4  0
 15 25  2  0
 16 27  4  0
 17 18  4  0
 20 27  1  0
 24 27  4  0
 26 28  4  0
M  END
$$$$

 Created by Python create_sdf_string function

 29 33  0  0  0  0  0  0  0  0999 V2000
    8.8270   -7.0288   18.4251 C   0  0  0  0  0  0  0  0  0  0  0  0
    9.1576   -4.6236   15.8860 O   0  0  0  0  0  0  0  0  0  0  0  0
    9.1509   -5.9108   17.7177 C   0  0  0  0  0  0  0  0  0  0  0  0
    3.6373   -9.5349   16.0582 N   0  0  0  0  0  0  0  0  0  0  0  0
    9.9275   -4.8001   18.0438 N   0  0  0  0  0  0  0  0  0  0  0  0
    8.5908   -5.7425   16.4412 C   0  0  0  0  0  0  0  0  0  0  0  0
   10.5993   -4.8981   21.6068 C   0  0  0  0  0  0  0  0  0  0  0  0
   10.4258   -3.0106   23.0998 C   0  0  0  0  0  0  0  0  0  0  0  0
   10.2148   -3.4364   25.4200 C   0  0  0  0  0  0  0  0  0  0  0  0
    9.7853   -1.1840   24.4927 C   0  0  0  0  0  0  0  0  0  0  0  0
    5.0276   -8.5227   17.5352 C   0  0  0  0  0  0  0  0  0  0  0  0
    9.8187   -2.0895   25.5800 C   0  0  0  0  0  0  0  0  0  0  0  0
    5.6473   -8.7216   15.3158 C   0  0  0  0  0  0  0  0  0  0  0  0
   10.7581   -3.1233   19.4720 N   0  0  0  0  0  0  0  0  0  0  0  0
    9.9571   -4.0573   16.8866 C   0  0  0  0  0  0  0  0  0  0  0  0
    7.6213   -6.5618   16.0087 C   0  0  0  0  0  0  0  0  0  0  0  0
   10.8583   -2.6527   20.7222 C   0  0  0  0  0  0  0  0  0  0  0  0
   10.6412   -3.5089   21.7936 C   0  0  0  0  0  0  0  0  0  0  0  0
   10.4972   -3.8968   24.1589 C   0  0  0  0  0  0  0  0  0  0  0  0
    5.9260   -8.2736   16.5517 C   0  0  0  0  0  0  0  0  0  0  0  0
    3.8816   -9.1166   17.2493 C   0  0  0  0  0  0  0  0  0  0  0  0
   10.1297   -1.6575   23.2324 C   0  0  0  0  0  0  0  0  0  0  0  0
    9.4684   -1.6929   26.7263 F   0  0  0  0  0  0  0  0  0  0  0  0
    7.7963   -7.7906   17.9837 C   0  0  0  0  0  0  0  0  0  0  0  0
   10.5884   -3.0725   16.7902 O   0  0  0  0  0  0  0  0  0  0  0  0
   10.4323   -5.3494   20.3516 C   0  0  0  0  0  0  0  0  0  0  0  0
    7.1156   -7.5454   16.8218 C   0  0  0  0  0  0  0  0  0  0  0  0
   10.3885   -4.4388   19.2773 C   0  0  0  0  0  0  0  0  0  0  0  0
    4.5160   -9.3822   15.0841 C   0  0  0  0  0  0  0  0  0  0  0  0
  1  3  4  0
  1 24  4  0
  2  6  4  0
  2 15  4  0
  3  5  4  0
  3  6  4  0
  4 21  4  0
  4 29  4  0
  5 15  4  0
  5 28  1  0
  6 16  4  0
  7 18  4  0
  7 26  4  0
  8 18  1  0
  8 19  4  0
  8 22  4  0
  9 12  4  0
  9 19  4  0
 10 12  4  0
 10 22  4  0
 11 20  4  0
 11 21  4  0
 12 23  1  0
 13 20  4  0
 13 29  4  0
 14 17  4  0
 14 28  4  0
 15 25  2  0
 16 27  4  0
 17 18  4  0
 20 27  1  0
 24 27  4  0
 26 28  4  0
M  END
$$$$

 Created by Python create_sdf_string function

 29 33  0  0  0  0  0  0  0  0999 V2000
    8.8270   -7.0288   18.4251 C   0  0  0  0  0  0  0  0  0  0  0  0
    9.1576   -4.6236   15.8860 O   0  0  0  0  0  0  0  0  0  0  0  0
    9.1509   -5.9108   17.7177 C   0  0  0  0  0  0  0  0  0  0  0  0
    3.6373   -9.5349   16.0582 N   0  0  0  0  0  0  0  0  0  0  0  0
    9.9275   -4.8001   18.0438 N   0  0  0  0  0  0  0  0  0  0  0  0
    8.5908   -5.7425   16.4412 C   0  0  0  0  0  0  0  0  0  0  0  0
   10.5993   -4.8981   21.6068 C   0  0  0  0  0  0  0  0  0  0  0  0
   10.4258   -3.0106   23.0998 C   0  0  0  0  0  0  0  0  0  0  0  0
   10.2148   -3.4364   25.4200 C   0  0  0  0  0  0  0  0  0  0  0  0
    9.7853   -1.1840   24.4927 C   0  0  0  0  0  0  0  0  0  0  0  0
    5.0276   -8.5227   17.5352 C   0  0  0  0  0  0  0  0  0  0  0  0
    9.8187   -2.0895   25.5800 C   0  0  0  0  0  0  0  0  0  0  0  0
    5.6473   -8.7216   15.3158 C   0  0  0  0  0  0  0  0  0  0  0  0
   10.7581   -3.1233   19.4720 N   0  0  0  0  0  0  0  0  0  0  0  0
    9.9571   -4.0573   16.8866 C   0  0  0  0  0  0  0  0  0  0  0  0
    7.6213   -6.5618   16.0087 C   0  0  0  0  0  0  0  0  0  0  0  0
   10.8583   -2.6527   20.7222 C   0  0  0  0  0  0  0  0  0  0  0  0
   10.6412   -3.5089   21.7936 C   0  0  0  0  0  0  0  0  0  0  0  0
   10.4972   -3.8968   24.1589 C   0  0  0  0  0  0  0  0  0  0  0  0
    5.9260   -8.2736   16.5517 C   0  0  0  0  0  0  0  0  0  0  0  0
    3.8816   -9.1166   17.2493 C   0  0  0  0  0  0  0  0  0  0  0  0
   10.1297   -1.6575   23.2324 C   0  0  0  0  0  0  0  0  0  0  0  0
    9.4684   -1.6929   26.7263 F   0  0  0  0  0  0  0  0  0  0  0  0
    7.7963   -7.7906   17.9837 C   0  0  0  0  0  0  0  0  0  0  0  0
   10.5884   -3.0725   16.7902 O   0  0  0  0  0  0  0  0  0  0  0  0
   10.4323   -5.3494   20.3516 C   0  0  0  0  0  0  0  0  0  0  0  0
    7.1156   -7.5454   16.8218 C   0  0  0  0  0  0  0  0  0  0  0  0
   10.3885   -4.4388   19.2773 C   0  0  0  0  0  0  0  0  0  0  0  0
    4.5160   -9.3822   15.0841 C   0  0  0  0  0  0  0  0  0  0  0  0
  1  3  4  0
  1 24  4  0
  2  6  4  0
  2 15  4  0
  3  5  4  0
  3  6  4  0
  4 21  4  0
  4 29  4  0
  5 15  4  0
  5 28  1  0
  6 16  4  0
  7 18  4  0
  7 26  4  0
  8 18  1  0
  8 19  4  0
  8 22  4  0
  9 12  4  0
  9 19  4  0
 10 12  4  0
 10 22  4  0
 11 20  4  0
 11 21  4  0
 12 23  1  0
 13 20  4  0
 13 29  4  0
 14 17  4  0
 14 28  4  0
 15 25  2  0
 16 27  4  0
 17 18  4  0
 20 27  1  0
 24 27  4  0
 26 28  4  0
M  END
$$$$

 Created by Python create_sdf_string function

 29 33  0  0  0  0  0  0  0  0999 V2000
    8.8270   -7.0288   18.4251 C   0  0  0  0  0  0  0  0  0  0  0  0
    9.1576   -4.6236   15.8860 O   0  0  0  0  0  0  0  0  0  0  0  0
    9.1509   -5.9108   17.7177 C   0  0  0  0  0  0  0  0  0  0  0  0
    3.6373   -9.5349   16.0582 N   0  0  0  0  0  0  0  0  0  0  0  0
    9.9275   -4.8001   18.0438 N   0  0  0  0  0  0  0  0  0  0  0  0
    8.5908   -5.7425   16.4412 C   0  0  0  0  0  0  0  0  0  0  0  0
   10.5993   -4.8981   21.6068 C   0  0  0  0  0  0  0  0  0  0  0  0
   10.4258   -3.0106   23.0998 C   0  0  0  0  0  0  0  0  0  0  0  0
   10.2148   -3.4364   25.4200 C   0  0  0  0  0  0  0  0  0  0  0  0
    9.7853   -1.1840   24.4927 C   0  0  0  0  0  0  0  0  0  0  0  0
    5.0276   -8.5227   17.5352 C   0  0  0  0  0  0  0  0  0  0  0  0
    9.8187   -2.0895   25.5800 C   0  0  0  0  0  0  0  0  0  0  0  0
    5.6473   -8.7216   15.3158 C   0  0  0  0  0  0  0  0  0  0  0  0
   10.7581   -3.1233   19.4720 N   0  0  0  0  0  0  0  0  0  0  0  0
    9.9571   -4.0573   16.8866 C   0  0  0  0  0  0  0  0  0  0  0  0
    7.6213   -6.5618   16.0087 C   0  0  0  0  0  0  0  0  0  0  0  0
   10.8583   -2.6527   20.7222 C   0  0  0  0  0  0  0  0  0  0  0  0
   10.6412   -3.5089   21.7936 C   0  0  0  0  0  0  0  0  0  0  0  0
   10.4972   -3.8968   24.1589 C   0  0  0  0  0  0  0  0  0  0  0  0
    5.9260   -8.2736   16.5517 C   0  0  0  0  0  0  0  0  0  0  0  0
    3.8816   -9.1166   17.2493 C   0  0  0  0  0  0  0  0  0  0  0  0
   10.1297   -1.6575   23.2324 C   0  0  0  0  0  0  0  0  0  0  0  0
    9.4684   -1.6929   26.7263 F   0  0  0  0  0  0  0  0  0  0  0  0
    7.7963   -7.7906   17.9837 C   0  0  0  0  0  0  0  0  0  0  0  0
   10.5884   -3.0725   16.7902 O   0  0  0  0  0  0  0  0  0  0  0  0
   10.4323   -5.3494   20.3516 C   0  0  0  0  0  0  0  0  0  0  0  0
    7.1156   -7.5454   16.8218 C   0  0  0  0  0  0  0  0  0  0  0  0
   10.3885   -4.4388   19.2773 C   0  0  0  0  0  0  0  0  0  0  0  0
    4.5160   -9.3822   15.0841 C   0  0  0  0  0  0  0  0  0  0  0  0
  1  3  4  0
  1 24  4  0
  2  6  4  0
  2 15  4  0
  3  5  4  0
  3  6  4  0
  4 21  4  0
  4 29  4  0
  5 15  4  0
  5 28  1  0
  6 16  4  0
  7 18  4  0
  7 26  4  0
  8 18  1  0
  8 19  4  0
  8 22  4  0
  9 12  4  0
  9 19  4  0
 10 12  4  0
 10 22  4  0
 11 20  4  0
 11 21  4  0
 12 23  1  0
 13 20  4  0
 13 29  4  0
 14 17  4  0
 14 28  4  0
 15 25  2  0
 16 27  4  0
 17 18  4  0
 20 27  1  0
 24 27  4  0
 26 28  4  0
M  END
$$$$

 Created by Python create_sdf_string function

 29 33  0  0  0  0  0  0  0  0999 V2000
    8.8270   -7.0288   18.4251 C   0  0  0  0  0  0  0  0  0  0  0  0
    9.1576   -4.6236   15.8860 O   0  0  0  0  0  0  0  0  0  0  0  0
    9.1509   -5.9108   17.7177 C   0  0  0  0  0  0  0  0  0  0  0  0
    3.6373   -9.5349   16.0582 N   0  0  0  0  0  0  0  0  0  0  0  0
    9.9275   -4.8001   18.0438 N   0  0  0  0  0  0  0  0  0  0  0  0
    8.5908   -5.7425   16.4412 C   0  0  0  0  0  0  0  0  0  0  0  0
   10.5993   -4.8981   21.6068 C   0  0  0  0  0  0  0  0  0  0  0  0
   10.4258   -3.0106   23.0998 C   0  0  0  0  0  0  0  0  0  0  0  0
   10.2148   -3.4364   25.4200 C   0  0  0  0  0  0  0  0  0  0  0  0
    9.7853   -1.1840   24.4927 C   0  0  0  0  0  0  0  0  0  0  0  0
    5.0276   -8.5227   17.5352 C   0  0  0  0  0  0  0  0  0  0  0  0
    9.8187   -2.0895   25.5800 C   0  0  0  0  0  0  0  0  0  0  0  0
    5.6473   -8.7216   15.3158 C   0  0  0  0  0  0  0  0  0  0  0  0
   10.7581   -3.1233   19.4720 N   0  0  0  0  0  0  0  0  0  0  0  0
    9.9571   -4.0573   16.8866 C   0  0  0  0  0  0  0  0  0  0  0  0
    7.6213   -6.5618   16.0087 C   0  0  0  0  0  0  0  0  0  0  0  0
   10.8583   -2.6527   20.7222 C   0  0  0  0  0  0  0  0  0  0  0  0
   10.6412   -3.5089   21.7936 C   0  0  0  0  0  0  0  0  0  0  0  0
   10.4972   -3.8968   24.1589 C   0  0  0  0  0  0  0  0  0  0  0  0
    5.9260   -8.2736   16.5517 C   0  0  0  0  0  0  0  0  0  0  0  0
    3.8816   -9.1166   17.2493 C   0  0  0  0  0  0  0  0  0  0  0  0
   10.1297   -1.6575   23.2324 C   0  0  0  0  0  0  0  0  0  0  0  0
    9.4684   -1.6929   26.7263 F   0  0  0  0  0  0  0  0  0  0  0  0
    7.7963   -7.7906   17.9837 C   0  0  0  0  0  0  0  0  0  0  0  0
   10.5884   -3.0725   16.7902 O   0  0  0  0  0  0  0  0  0  0  0  0
   10.4323   -5.3494   20.3516 C   0  0  0  0  0  0  0  0  0  0  0  0
    7.1156   -7.5454   16.8218 C   0  0  0  0  0  0  0  0  0  0  0  0
   10.3885   -4.4388   19.2773 C   0  0  0  0  0  0  0  0  0  0  0  0
    4.5160   -9.3822   15.0841 C   0  0  0  0  0  0  0  0  0  0  0  0
  1  3  4  0
  1 24  4  0
  2  6  4  0
  2 15  4  0
  3  5  4  0
  3  6  4  0
  4 21  4  0
  4 29  4  0
  5 15  4  0
  5 28  1  0
  6 16  4  0
  7 18  4  0
  7 26  4  0
  8 18  1  0
  8 19  4  0
  8 22  4  0
  9 12  4  0
  9 19  4  0
 10 12  4  0
 10 22  4  0
 11 20  4  0
 11 21  4  0
 12 23  1  0
 13 20  4  0
 13 29  4  0
 14 17  4  0
 14 28  4  0
 15 25  2  0
 16 27  4  0
 17 18  4  0
 20 27  1  0
 24 27  4  0
 26 28  4  0
M  END
$$$$

 Created by Python create_sdf_string function

 29 33  0  0  0  0  0  0  0  0999 V2000
    8.8270   -7.0288   18.4251 C   0  0  0  0  0  0  0  0  0  0  0  0
    9.1576   -4.6236   15.8860 O   0  0  0  0  0  0  0  0  0  0  0  0
    9.1509   -5.9108   17.7177 C   0  0  0  0  0  0  0  0  0  0  0  0
    3.6373   -9.5349   16.0582 N   0  0  0  0  0  0  0  0  0  0  0  0
    9.9275   -4.8001   18.0438 N   0  0  0  0  0  0  0  0  0  0  0  0
    8.5908   -5.7425   16.4412 C   0  0  0  0  0  0  0  0  0  0  0  0
   10.5993   -4.8981   21.6068 C   0  0  0  0  0  0  0  0  0  0  0  0
   10.4258   -3.0106   23.0998 C   0  0  0  0  0  0  0  0  0  0  0  0
   10.2148   -3.4364   25.4200 C   0  0  0  0  0  0  0  0  0  0  0  0
    9.7853   -1.1840   24.4927 C   0  0  0  0  0  0  0  0  0  0  0  0
    5.0276   -8.5227   17.5352 C   0  0  0  0  0  0  0  0  0  0  0  0
    9.8187   -2.0895   25.5800 C   0  0  0  0  0  0  0  0  0  0  0  0
    5.6473   -8.7216   15.3158 C   0  0  0  0  0  0  0  0  0  0  0  0
   10.7581   -3.1233   19.4720 N   0  0  0  0  0  0  0  0  0  0  0  0
    9.9571   -4.0573   16.8866 C   0  0  0  0  0  0  0  0  0  0  0  0
    7.6213   -6.5618   16.0087 C   0  0  0  0  0  0  0  0  0  0  0  0
   10.8583   -2.6527   20.7222 C   0  0  0  0  0  0  0  0  0  0  0  0
   10.6412   -3.5089   21.7936 C   0  0  0  0  0  0  0  0  0  0  0  0
   10.4972   -3.8968   24.1589 C   0  0  0  0  0  0  0  0  0  0  0  0
    5.9260   -8.2736   16.5517 C   0  0  0  0  0  0  0  0  0  0  0  0
    3.8816   -9.1166   17.2493 C   0  0  0  0  0  0  0  0  0  0  0  0
   10.1297   -1.6575   23.2324 C   0  0  0  0  0  0  0  0  0  0  0  0
    9.4684   -1.6929   26.7263 F   0  0  0  0  0  0  0  0  0  0  0  0
    7.7963   -7.7906   17.9837 C   0  0  0  0  0  0  0  0  0  0  0  0
   10.5884   -3.0725   16.7902 O   0  0  0  0  0  0  0  0  0  0  0  0
   10.4323   -5.3494   20.3516 C   0  0  0  0  0  0  0  0  0  0  0  0
    7.1156   -7.5454   16.8218 C   0  0  0  0  0  0  0  0  0  0  0  0
   10.3885   -4.4388   19.2773 C   0  0  0  0  0  0  0  0  0  0  0  0
    4.5160   -9.3822   15.0841 C   0  0  0  0  0  0  0  0  0  0  0  0
  1  3  4  0
  1 24  4  0
  2  6  4  0
  2 15  4  0
  3  5  4  0
  3  6  4  0
  4 21  4  0
  4 29  4  0
  5 15  4  0
  5 28  1  0
  6 16  4  0
  7 18  4  0
  7 26  4  0
  8 18  1  0
  8 19  4  0
  8 22  4  0
  9 12  4  0
  9 19  4  0
 10 12  4  0
 10 22  4  0
 11 20  4  0
 11 21  4  0
 12 23  1  0
 13 20  4  0
 13 29  4  0
 14 17  4  0
 14 28  4  0
 15 25  2  0
 16 27  4  0
 17 18  4  0
 20 27  1  0
 24 27  4  0
 26 28  4  0
M  END
$$$$

 Created by Python create_sdf_string function

 29 33  0  0  0  0  0  0  0  0999 V2000
    8.8270   -7.0288   18.4251 C   0  0  0  0  0  0  0  0  0  0  0  0
    9.1576   -4.6236   15.8860 O   0  0  0  0  0  0  0  0  0  0  0  0
    9.1509   -5.9108   17.7177 C   0  0  0  0  0  0  0  0  0  0  0  0
    3.6373   -9.5349   16.0582 N   0  0  0  0  0  0  0  0  0  0  0  0
    9.9275   -4.8001   18.0438 N   0  0  0  0  0  0  0  0  0  0  0  0
    8.5908   -5.7425   16.4412 C   0  0  0  0  0  0  0  0  0  0  0  0
   10.5993   -4.8981   21.6068 C   0  0  0  0  0  0  0  0  0  0  0  0
   10.4258   -3.0106   23.0998 C   0  0  0  0  0  0  0  0  0  0  0  0
   10.2148   -3.4364   25.4200 C   0  0  0  0  0  0  0  0  0  0  0  0
    9.7853   -1.1840   24.4927 C   0  0  0  0  0  0  0  0  0  0  0  0
    5.0276   -8.5227   17.5352 C   0  0  0  0  0  0  0  0  0  0  0  0
    9.8187   -2.0895   25.5800 C   0  0  0  0  0  0  0  0  0  0  0  0
    5.6473   -8.7216   15.3158 C   0  0  0  0  0  0  0  0  0  0  0  0
   10.7581   -3.1233   19.4720 N   0  0  0  0  0  0  0  0  0  0  0  0
    9.9571   -4.0573   16.8866 C   0  0  0  0  0  0  0  0  0  0  0  0
    7.6213   -6.5618   16.0087 C   0  0  0  0  0  0  0  0  0  0  0  0
   10.8583   -2.6527   20.7222 C   0  0  0  0  0  0  0  0  0  0  0  0
   10.6412   -3.5089   21.7936 C   0  0  0  0  0  0  0  0  0  0  0  0
   10.4972   -3.8968   24.1589 C   0  0  0  0  0  0  0  0  0  0  0  0
    5.9260   -8.2736   16.5517 C   0  0  0  0  0  0  0  0  0  0  0  0
    3.8816   -9.1166   17.2493 C   0  0  0  0  0  0  0  0  0  0  0  0
   10.1297   -1.6575   23.2324 C   0  0  0  0  0  0  0  0  0  0  0  0
    9.4684   -1.6929   26.7263 F   0  0  0  0  0  0  0  0  0  0  0  0
    7.7963   -7.7906   17.9837 C   0  0  0  0  0  0  0  0  0  0  0  0
   10.5884   -3.0725   16.7902 O   0  0  0  0  0  0  0  0  0  0  0  0
   10.4323   -5.3494   20.3516 C   0  0  0  0  0  0  0  0  0  0  0  0
    7.1156   -7.5454   16.8218 C   0  0  0  0  0  0  0  0  0  0  0  0
   10.3885   -4.4388   19.2773 C   0  0  0  0  0  0  0  0  0  0  0  0
    4.5160   -9.3822   15.0841 C   0  0  0  0  0  0  0  0  0  0  0  0
  1  3  4  0
  1 24  4  0
  2  6  4  0
  2 15  4  0
  3  5  4  0
  3  6  4  0
  4 21  4  0
  4 29  4  0
  5 15  4  0
  5 28  1  0
  6 16  4  0
  7 18  4  0
  7 26  4  0
  8 18  1  0
  8 19  4  0
  8 22  4  0
  9 12  4  0
  9 19  4  0
 10 12  4  0
 10 22  4  0
 11 20  4  0
 11 21  4  0
 12 23  1  0
 13 20  4  0
 13 29  4  0
 14 17  4  0
 14 28  4  0
 15 25  2  0
 16 27  4  0
 17 18  4  0
 20 27  1  0
 24 27  4  0
 26 28  4  0
M  END
$$$$

 Created by Python create_sdf_string function

 29 33  0  0  0  0  0  0  0  0999 V2000
    8.8270   -7.0288   18.4251 C   0  0  0  0  0  0  0  0  0  0  0  0
    9.1576   -4.6236   15.8860 O   0  0  0  0  0  0  0  0  0  0  0  0
    9.1509   -5.9108   17.7177 C   0  0  0  0  0  0  0  0  0  0  0  0
    3.6373   -9.5349   16.0582 N   0  0  0  0  0  0  0  0  0  0  0  0
    9.9275   -4.8001   18.0438 N   0  0  0  0  0  0  0  0  0  0  0  0
    8.5908   -5.7425   16.4412 C   0  0  0  0  0  0  0  0  0  0  0  0
   10.5993   -4.8981   21.6068 C   0  0  0  0  0  0  0  0  0  0  0  0
   10.4258   -3.0106   23.0998 C   0  0  0  0  0  0  0  0  0  0  0  0
   10.2148   -3.4364   25.4200 C   0  0  0  0  0  0  0  0  0  0  0  0
    9.7853   -1.1840   24.4927 C   0  0  0  0  0  0  0  0  0  0  0  0
    5.0276   -8.5227   17.5352 C   0  0  0  0  0  0  0  0  0  0  0  0
    9.8187   -2.0895   25.5800 C   0  0  0  0  0  0  0  0  0  0  0  0
    5.6473   -8.7216   15.3158 C   0  0  0  0  0  0  0  0  0  0  0  0
   10.7581   -3.1233   19.4720 N   0  0  0  0  0  0  0  0  0  0  0  0
    9.9571   -4.0573   16.8866 C   0  0  0  0  0  0  0  0  0  0  0  0
    7.6213   -6.5618   16.0087 C   0  0  0  0  0  0  0  0  0  0  0  0
   10.8583   -2.6527   20.7222 C   0  0  0  0  0  0  0  0  0  0  0  0
   10.6412   -3.5089   21.7936 C   0  0  0  0  0  0  0  0  0  0  0  0
   10.4972   -3.8968   24.1589 C   0  0  0  0  0  0  0  0  0  0  0  0
    5.9260   -8.2736   16.5517 C   0  0  0  0  0  0  0  0  0  0  0  0
    3.8816   -9.1166   17.2493 C   0  0  0  0  0  0  0  0  0  0  0  0
   10.1297   -1.6575   23.2324 C   0  0  0  0  0  0  0  0  0  0  0  0
    9.4684   -1.6929   26.7263 F   0  0  0  0  0  0  0  0  0  0  0  0
    7.7963   -7.7906   17.9837 C   0  0  0  0  0  0  0  0  0  0  0  0
   10.5884   -3.0725   16.7902 O   0  0  0  0  0  0  0  0  0  0  0  0
   10.4323   -5.3494   20.3516 C   0  0  0  0  0  0  0  0  0  0  0  0
    7.1156   -7.5454   16.8218 C   0  0  0  0  0  0  0  0  0  0  0  0
   10.3885   -4.4388   19.2773 C   0  0  0  0  0  0  0  0  0  0  0  0
    4.5160   -9.3822   15.0841 C   0  0  0  0  0  0  0  0  0  0  0  0
  1  3  4  0
  1 24  4  0
  2  6  4  0
  2 15  4  0
  3  5  4  0
  3  6  4  0
  4 21  4  0
  4 29  4  0
  5 15  4  0
  5 28  1  0
  6 16  4  0
  7 18  4  0
  7 26  4  0
  8 18  1  0
  8 19  4  0
  8 22  4  0
  9 12  4  0
  9 19  4  0
 10 12  4  0
 10 22  4  0
 11 20  4  0
 11 21  4  0
 12 23  1  0
 13 20  4  0
 13 29  4  0
 14 17  4  0
 14 28  4  0
 15 25  2  0
 16 27  4  0
 17 18  4  0
 20 27  1  0
 24 27  4  0
 26 28  4  0
M  END
$$$$

 Created by Python create_sdf_string function

 29 33  0  0  0  0  0  0  0  0999 V2000
    8.8270   -7.0288   18.4251 C   0  0  0  0  0  0  0  0  0  0  0  0
    9.1576   -4.6236   15.8860 O   0  0  0  0  0  0  0  0  0  0  0  0
    9.1509   -5.9108   17.7177 C   0  0  0  0  0  0  0  0  0  0  0  0
    3.6373   -9.5349   16.0582 N   0  0  0  0  0  0  0  0  0  0  0  0
    9.9275   -4.8001   18.0438 N   0  0  0  0  0  0  0  0  0  0  0  0
    8.5908   -5.7425   16.4412 C   0  0  0  0  0  0  0  0  0  0  0  0
   10.5993   -4.8981   21.6068 C   0  0  0  0  0  0  0  0  0  0  0  0
   10.4258   -3.0106   23.0998 C   0  0  0  0  0  0  0  0  0  0  0  0
   10.2148   -3.4364   25.4200 C   0  0  0  0  0  0  0  0  0  0  0  0
    9.7853   -1.1840   24.4927 C   0  0  0  0  0  0  0  0  0  0  0  0
    5.0276   -8.5227   17.5352 C   0  0  0  0  0  0  0  0  0  0  0  0
    9.8187   -2.0895   25.5800 C   0  0  0  0  0  0  0  0  0  0  0  0
    5.6473   -8.7216   15.3158 C   0  0  0  0  0  0  0  0  0  0  0  0
   10.7581   -3.1233   19.4720 N   0  0  0  0  0  0  0  0  0  0  0  0
    9.9571   -4.0573   16.8866 C   0  0  0  0  0  0  0  0  0  0  0  0
    7.6213   -6.5618   16.0087 C   0  0  0  0  0  0  0  0  0  0  0  0
   10.8583   -2.6527   20.7222 C   0  0  0  0  0  0  0  0  0  0  0  0
   10.6412   -3.5089   21.7936 C   0  0  0  0  0  0  0  0  0  0  0  0
   10.4972   -3.8968   24.1589 C   0  0  0  0  0  0  0  0  0  0  0  0
    5.9260   -8.2736   16.5517 C   0  0  0  0  0  0  0  0  0  0  0  0
    3.8816   -9.1166   17.2493 C   0  0  0  0  0  0  0  0  0  0  0  0
   10.1297   -1.6575   23.2324 C   0  0  0  0  0  0  0  0  0  0  0  0
    9.4684   -1.6929   26.7263 F   0  0  0  0  0  0  0  0  0  0  0  0
    7.7963   -7.7906   17.9837 C   0  0  0  0  0  0  0  0  0  0  0  0
   10.5884   -3.0725   16.7902 O   0  0  0  0  0  0  0  0  0  0  0  0
   10.4323   -5.3494   20.3516 C   0  0  0  0  0  0  0  0  0  0  0  0
    7.1156   -7.5454   16.8218 C   0  0  0  0  0  0  0  0  0  0  0  0
   10.3885   -4.4388   19.2773 C   0  0  0  0  0  0  0  0  0  0  0  0
    4.5160   -9.3822   15.0841 C   0  0  0  0  0  0  0  0  0  0  0  0
  1  3  4  0
  1 24  4  0
  2  6  4  0
  2 15  4  0
  3  5  4  0
  3  6  4  0
  4 21  4  0
  4 29  4  0
  5 15  4  0
  5 28  1  0
  6 16  4  0
  7 18  4  0
  7 26  4  0
  8 18  1  0
  8 19  4  0
  8 22  4  0
  9 12  4  0
  9 19  4  0
 10 12  4  0
 10 22  4  0
 11 20  4  0
 11 21  4  0
 12 23  1  0
 13 20  4  0
 13 29  4  0
 14 17  4  0
 14 28  4  0
 15 25  2  0
 16 27  4  0
 17 18  4  0
 20 27  1  0
 24 27  4  0
 26 28  4  0
M  END
$$$$

 Created by Python create_sdf_string function

 29 33  0  0  0  0  0  0  0  0999 V2000
    8.8270   -7.0288   18.4251 C   0  0  0  0  0  0  0  0  0  0  0  0
    9.1576   -4.6236   15.8860 O   0  0  0  0  0  0  0  0  0  0  0  0
    9.1509   -5.9108   17.7177 C   0  0  0  0  0  0  0  0  0  0  0  0
    3.6373   -9.5349   16.0582 N   0  0  0  0  0  0  0  0  0  0  0  0
    9.9275   -4.8001   18.0438 N   0  0  0  0  0  0  0  0  0  0  0  0
    8.5908   -5.7425   16.4412 C   0  0  0  0  0  0  0  0  0  0  0  0
   10.5993   -4.8981   21.6068 C   0  0  0  0  0  0  0  0  0  0  0  0
   10.4258   -3.0106   23.0998 C   0  0  0  0  0  0  0  0  0  0  0  0
   10.2148   -3.4364   25.4200 C   0  0  0  0  0  0  0  0  0  0  0  0
    9.7853   -1.1840   24.4927 C   0  0  0  0  0  0  0  0  0  0  0  0
    5.0276   -8.5227   17.5352 C   0  0  0  0  0  0  0  0  0  0  0  0
    9.8187   -2.0895   25.5800 C   0  0  0  0  0  0  0  0  0  0  0  0
    5.6473   -8.7216   15.3158 C   0  0  0  0  0  0  0  0  0  0  0  0
   10.7581   -3.1233   19.4720 N   0  0  0  0  0  0  0  0  0  0  0  0
    9.9571   -4.0573   16.8866 C   0  0  0  0  0  0  0  0  0  0  0  0
    7.6213   -6.5618   16.0087 C   0  0  0  0  0  0  0  0  0  0  0  0
   10.8583   -2.6527   20.7222 C   0  0  0  0  0  0  0  0  0  0  0  0
   10.6412   -3.5089   21.7936 C   0  0  0  0  0  0  0  0  0  0  0  0
   10.4972   -3.8968   24.1589 C   0  0  0  0  0  0  0  0  0  0  0  0
    5.9260   -8.2736   16.5517 C   0  0  0  0  0  0  0  0  0  0  0  0
    3.8816   -9.1166   17.2493 C   0  0  0  0  0  0  0  0  0  0  0  0
   10.1297   -1.6575   23.2324 C   0  0  0  0  0  0  0  0  0  0  0  0
    9.4684   -1.6929   26.7263 F   0  0  0  0  0  0  0  0  0  0  0  0
    7.7963   -7.7906   17.9837 C   0  0  0  0  0  0  0  0  0  0  0  0
   10.5884   -3.0725   16.7902 O   0  0  0  0  0  0  0  0  0  0  0  0
   10.4323   -5.3494   20.3516 C   0  0  0  0  0  0  0  0  0  0  0  0
    7.1156   -7.5454   16.8218 C   0  0  0  0  0  0  0  0  0  0  0  0
   10.3885   -4.4388   19.2773 C   0  0  0  0  0  0  0  0  0  0  0  0
    4.5160   -9.3822   15.0841 C   0  0  0  0  0  0  0  0  0  0  0  0
  1  3  4  0
  1 24  4  0
  2  6  4  0
  2 15  4  0
  3  5  4  0
  3  6  4  0
  4 21  4  0
  4 29  4  0
  5 15  4  0
  5 28  1  0
  6 16  4  0
  7 18  4  0
  7 26  4  0
  8 18  1  0
  8 19  4  0
  8 22  4  0
  9 12  4  0
  9 19  4  0
 10 12  4  0
 10 22  4  0
 11 20  4  0
 11 21  4  0
 12 23  1  0
 13 20  4  0
 13 29  4  0
 14 17  4  0
 14 28  4  0
 15 25  2  0
 16 27  4  0
 17 18  4  0
 20 27  1  0
 24 27  4  0
 26 28  4  0
M  END
$$$$

 Created by Python create_sdf_string function

 29 33  0  0  0  0  0  0  0  0999 V2000
    8.8270   -7.0288   18.4251 C   0  0  0  0  0  0  0  0  0  0  0  0
    9.1576   -4.6236   15.8860 O   0  0  0  0  0  0  0  0  0  0  0  0
    9.1509   -5.9108   17.7177 C   0  0  0  0  0  0  0  0  0  0  0  0
    3.6373   -9.5349   16.0582 N   0  0  0  0  0  0  0  0  0  0  0  0
    9.9275   -4.8001   18.0438 N   0  0  0  0  0  0  0  0  0  0  0  0
    8.5908   -5.7425   16.4412 C   0  0  0  0  0  0  0  0  0  0  0  0
   10.5993   -4.8981   21.6068 C   0  0  0  0  0  0  0  0  0  0  0  0
   10.4258   -3.0106   23.0998 C   0  0  0  0  0  0  0  0  0  0  0  0
   10.2148   -3.4364   25.4200 C   0  0  0  0  0  0  0  0  0  0  0  0
    9.7853   -1.1840   24.4927 C   0  0  0  0  0  0  0  0  0  0  0  0
    5.0276   -8.5227   17.5352 C   0  0  0  0  0  0  0  0  0  0  0  0
    9.8187   -2.0895   25.5800 C   0  0  0  0  0  0  0  0  0  0  0  0
    5.6473   -8.7216   15.3158 C   0  0  0  0  0  0  0  0  0  0  0  0
   10.7581   -3.1233   19.4720 N   0  0  0  0  0  0  0  0  0  0  0  0
    9.9571   -4.0573   16.8866 C   0  0  0  0  0  0  0  0  0  0  0  0
    7.6213   -6.5618   16.0087 C   0  0  0  0  0  0  0  0  0  0  0  0
   10.8583   -2.6527   20.7222 C   0  0  0  0  0  0  0  0  0  0  0  0
   10.6412   -3.5089   21.7936 C   0  0  0  0  0  0  0  0  0  0  0  0
   10.4972   -3.8968   24.1589 C   0  0  0  0  0  0  0  0  0  0  0  0
    5.9260   -8.2736   16.5517 C   0  0  0  0  0  0  0  0  0  0  0  0
    3.8816   -9.1166   17.2493 C   0  0  0  0  0  0  0  0  0  0  0  0
   10.1297   -1.6575   23.2324 C   0  0  0  0  0  0  0  0  0  0  0  0
    9.4684   -1.6929   26.7263 F   0  0  0  0  0  0  0  0  0  0  0  0
    7.7963   -7.7906   17.9837 C   0  0  0  0  0  0  0  0  0  0  0  0
   10.5884   -3.0725   16.7902 O   0  0  0  0  0  0  0  0  0  0  0  0
   10.4323   -5.3494   20.3516 C   0  0  0  0  0  0  0  0  0  0  0  0
    7.1156   -7.5454   16.8218 C   0  0  0  0  0  0  0  0  0  0  0  0
   10.3885   -4.4388   19.2773 C   0  0  0  0  0  0  0  0  0  0  0  0
    4.5160   -9.3822   15.0841 C   0  0  0  0  0  0  0  0  0  0  0  0
  1  3  4  0
  1 24  4  0
  2  6  4  0
  2 15  4  0
  3  5  4  0
  3  6  4  0
  4 21  4  0
  4 29  4  0
  5 15  4  0
  5 28  1  0
  6 16  4  0
  7 18  4  0
  7 26  4  0
  8 18  1  0
  8 19  4  0
  8 22  4  0
  9 12  4  0
  9 19  4  0
 10 12  4  0
 10 22  4  0
 11 20  4  0
 11 21  4  0
 12 23  1  0
 13 20  4  0
 13 29  4  0
 14 17  4  0
 14 28  4  0
 15 25  2  0
 16 27  4  0
 17 18  4  0
 20 27  1  0
 24 27  4  0
 26 28  4  0
M  END
$$$$

 Created by Python create_sdf_string function

 29 33  0  0  0  0  0  0  0  0999 V2000
    8.8270   -7.0288   18.4251 C   0  0  0  0  0  0  0  0  0  0  0  0
    9.1576   -4.6236   15.8860 O   0  0  0  0  0  0  0  0  0  0  0  0
    9.1509   -5.9108   17.7177 C   0  0  0  0  0  0  0  0  0  0  0  0
    3.6373   -9.5349   16.0582 N   0  0  0  0  0  0  0  0  0  0  0  0
    9.9275   -4.8001   18.0438 N   0  0  0  0  0  0  0  0  0  0  0  0
    8.5908   -5.7425   16.4412 C   0  0  0  0  0  0  0  0  0  0  0  0
   10.5993   -4.8981   21.6068 C   0  0  0  0  0  0  0  0  0  0  0  0
   10.4258   -3.0106   23.0998 C   0  0  0  0  0  0  0  0  0  0  0  0
   10.2148   -3.4364   25.4200 C   0  0  0  0  0  0  0  0  0  0  0  0
    9.7853   -1.1840   24.4927 C   0  0  0  0  0  0  0  0  0  0  0  0
    5.0276   -8.5227   17.5352 C   0  0  0  0  0  0  0  0  0  0  0  0
    9.8187   -2.0895   25.5800 C   0  0  0  0  0  0  0  0  0  0  0  0
    5.6473   -8.7216   15.3158 C   0  0  0  0  0  0  0  0  0  0  0  0
   10.7581   -3.1233   19.4720 N   0  0  0  0  0  0  0  0  0  0  0  0
    9.9571   -4.0573   16.8866 C   0  0  0  0  0  0  0  0  0  0  0  0
    7.6213   -6.5618   16.0087 C   0  0  0  0  0  0  0  0  0  0  0  0
   10.8583   -2.6527   20.7222 C   0  0  0  0  0  0  0  0  0  0  0  0
   10.6412   -3.5089   21.7936 C   0  0  0  0  0  0  0  0  0  0  0  0
   10.4972   -3.8968   24.1589 C   0  0  0  0  0  0  0  0  0  0  0  0
    5.9260   -8.2736   16.5517 C   0  0  0  0  0  0  0  0  0  0  0  0
    3.8816   -9.1166   17.2493 C   0  0  0  0  0  0  0  0  0  0  0  0
   10.1297   -1.6575   23.2324 C   0  0  0  0  0  0  0  0  0  0  0  0
    9.4684   -1.6929   26.7263 F   0  0  0  0  0  0  0  0  0  0  0  0
    7.7963   -7.7906   17.9837 C   0  0  0  0  0  0  0  0  0  0  0  0
   10.5884   -3.0725   16.7902 O   0  0  0  0  0  0  0  0  0  0  0  0
   10.4323   -5.3494   20.3516 C   0  0  0  0  0  0  0  0  0  0  0  0
    7.1156   -7.5454   16.8218 C   0  0  0  0  0  0  0  0  0  0  0  0
   10.3885   -4.4388   19.2773 C   0  0  0  0  0  0  0  0  0  0  0  0
    4.5160   -9.3822   15.0841 C   0  0  0  0  0  0  0  0  0  0  0  0
  1  3  4  0
  1 24  4  0
  2  6  4  0
  2 15  4  0
  3  5  4  0
  3  6  4  0
  4 21  4  0
  4 29  4  0
  5 15  4  0
  5 28  1  0
  6 16  4  0
  7 18  4  0
  7 26  4  0
  8 18  1  0
  8 19  4  0
  8 22  4  0
  9 12  4  0
  9 19  4  0
 10 12  4  0
 10 22  4  0
 11 20  4  0
 11 21  4  0
 12 23  1  0
 13 20  4  0
 13 29  4  0
 14 17  4  0
 14 28  4  0
 15 25  2  0
 16 27  4  0
 17 18  4  0
 20 27  1  0
 24 27  4  0
 26 28  4  0
M  END
$$$$

 Created by Python create_sdf_string function

 29 33  0  0  0  0  0  0  0  0999 V2000
    8.8270   -7.0288   18.4251 C   0  0  0  0  0  0  0  0  0  0  0  0
    9.1576   -4.6236   15.8860 O   0  0  0  0  0  0  0  0  0  0  0  0
    9.1509   -5.9108   17.7177 C   0  0  0  0  0  0  0  0  0  0  0  0
    3.6373   -9.5349   16.0582 N   0  0  0  0  0  0  0  0  0  0  0  0
    9.9275   -4.8001   18.0438 N   0  0  0  0  0  0  0  0  0  0  0  0
    8.5908   -5.7425   16.4412 C   0  0  0  0  0  0  0  0  0  0  0  0
   10.5993   -4.8981   21.6068 C   0  0  0  0  0  0  0  0  0  0  0  0
   10.4258   -3.0106   23.0998 C   0  0  0  0  0  0  0  0  0  0  0  0
   10.2148   -3.4364   25.4200 C   0  0  0  0  0  0  0  0  0  0  0  0
    9.7853   -1.1840   24.4927 C   0  0  0  0  0  0  0  0  0  0  0  0
    5.0276   -8.5227   17.5352 C   0  0  0  0  0  0  0  0  0  0  0  0
    9.8187   -2.0895   25.5800 C   0  0  0  0  0  0  0  0  0  0  0  0
    5.6473   -8.7216   15.3158 C   0  0  0  0  0  0  0  0  0  0  0  0
   10.7581   -3.1233   19.4720 N   0  0  0  0  0  0  0  0  0  0  0  0
    9.9571   -4.0573   16.8866 C   0  0  0  0  0  0  0  0  0  0  0  0
    7.6213   -6.5618   16.0087 C   0  0  0  0  0  0  0  0  0  0  0  0
   10.8583   -2.6527   20.7222 C   0  0  0  0  0  0  0  0  0  0  0  0
   10.6412   -3.5089   21.7936 C   0  0  0  0  0  0  0  0  0  0  0  0
   10.4972   -3.8968   24.1589 C   0  0  0  0  0  0  0  0  0  0  0  0
    5.9260   -8.2736   16.5517 C   0  0  0  0  0  0  0  0  0  0  0  0
    3.8816   -9.1166   17.2493 C   0  0  0  0  0  0  0  0  0  0  0  0
   10.1297   -1.6575   23.2324 C   0  0  0  0  0  0  0  0  0  0  0  0
    9.4684   -1.6929   26.7263 F   0  0  0  0  0  0  0  0  0  0  0  0
    7.7963   -7.7906   17.9837 C   0  0  0  0  0  0  0  0  0  0  0  0
   10.5884   -3.0725   16.7902 O   0  0  0  0  0  0  0  0  0  0  0  0
   10.4323   -5.3494   20.3516 C   0  0  0  0  0  0  0  0  0  0  0  0
    7.1156   -7.5454   16.8218 C   0  0  0  0  0  0  0  0  0  0  0  0
   10.3885   -4.4388   19.2773 C   0  0  0  0  0  0  0  0  0  0  0  0
    4.5160   -9.3822   15.0841 C   0  0  0  0  0  0  0  0  0  0  0  0
  1  3  4  0
  1 24  4  0
  2  6  4  0
  2 15  4  0
  3  5  4  0
  3  6  4  0
  4 21  4  0
  4 29  4  0
  5 15  4  0
  5 28  1  0
  6 16  4  0
  7 18  4  0
  7 26  4  0
  8 18  1  0
  8 19  4  0
  8 22  4  0
  9 12  4  0
  9 19  4  0
 10 12  4  0
 10 22  4  0
 11 20  4  0
 11 21  4  0
 12 23  1  0
 13 20  4  0
 13 29  4  0
 14 17  4  0
 14 28  4  0
 15 25  2  0
 16 27  4  0
 17 18  4  0
 20 27  1  0
 24 27  4  0
 26 28  4  0
M  END
$$$$

 Created by Python create_sdf_string function

 29 33  0  0  0  0  0  0  0  0999 V2000
    8.8270   -7.0288   18.4251 C   0  0  0  0  0  0  0  0  0  0  0  0
    9.1576   -4.6236   15.8860 O   0  0  0  0  0  0  0  0  0  0  0  0
    9.1509   -5.9108   17.7177 C   0  0  0  0  0  0  0  0  0  0  0  0
    3.6373   -9.5349   16.0582 N   0  0  0  0  0  0  0  0  0  0  0  0
    9.9275   -4.8001   18.0438 N   0  0  0  0  0  0  0  0  0  0  0  0
    8.5908   -5.7425   16.4412 C   0  0  0  0  0  0  0  0  0  0  0  0
   10.5993   -4.8981   21.6068 C   0  0  0  0  0  0  0  0  0  0  0  0
   10.4258   -3.0106   23.0998 C   0  0  0  0  0  0  0  0  0  0  0  0
   10.2148   -3.4364   25.4200 C   0  0  0  0  0  0  0  0  0  0  0  0
    9.7853   -1.1840   24.4927 C   0  0  0  0  0  0  0  0  0  0  0  0
    5.0276   -8.5227   17.5352 C   0  0  0  0  0  0  0  0  0  0  0  0
    9.8187   -2.0895   25.5800 C   0  0  0  0  0  0  0  0  0  0  0  0
    5.6473   -8.7216   15.3158 C   0  0  0  0  0  0  0  0  0  0  0  0
   10.7581   -3.1233   19.4720 N   0  0  0  0  0  0  0  0  0  0  0  0
    9.9571   -4.0573   16.8866 C   0  0  0  0  0  0  0  0  0  0  0  0
    7.6213   -6.5618   16.0087 C   0  0  0  0  0  0  0  0  0  0  0  0
   10.8583   -2.6527   20.7222 C   0  0  0  0  0  0  0  0  0  0  0  0
   10.6412   -3.5089   21.7936 C   0  0  0  0  0  0  0  0  0  0  0  0
   10.4972   -3.8968   24.1589 C   0  0  0  0  0  0  0  0  0  0  0  0
    5.9260   -8.2736   16.5517 C   0  0  0  0  0  0  0  0  0  0  0  0
    3.8816   -9.1166   17.2493 C   0  0  0  0  0  0  0  0  0  0  0  0
   10.1297   -1.6575   23.2324 C   0  0  0  0  0  0  0  0  0  0  0  0
    9.4684   -1.6929   26.7263 F   0  0  0  0  0  0  0  0  0  0  0  0
    7.7963   -7.7906   17.9837 C   0  0  0  0  0  0  0  0  0  0  0  0
   10.5884   -3.0725   16.7902 O   0  0  0  0  0  0  0  0  0  0  0  0
   10.4323   -5.3494   20.3516 C   0  0  0  0  0  0  0  0  0  0  0  0
    7.1156   -7.5454   16.8218 C   0  0  0  0  0  0  0  0  0  0  0  0
   10.3885   -4.4388   19.2773 C   0  0  0  0  0  0  0  0  0  0  0  0
    4.5160   -9.3822   15.0841 C   0  0  0  0  0  0  0  0  0  0  0  0
  1  3  4  0
  1 24  4  0
  2  6  4  0
  2 15  4  0
  3  5  4  0
  3  6  4  0
  4 21  4  0
  4 29  4  0
  5 15  4  0
  5 28  1  0
  6 16  4  0
  7 18  4  0
  7 26  4  0
  8 18  1  0
  8 19  4  0
  8 22  4  0
  9 12  4  0
  9 19  4  0
 10 12  4  0
 10 22  4  0
 11 20  4  0
 11 21  4  0
 12 23  1  0
 13 20  4  0
 13 29  4  0
 14 17  4  0
 14 28  4  0
 15 25  2  0
 16 27  4  0
 17 18  4  0
 20 27  1  0
 24 27  4  0
 26 28  4  0
M  END
$$$$

 Created by Python create_sdf_string function

 29 33  0  0  0  0  0  0  0  0999 V2000
    8.8270   -7.0288   18.4251 C   0  0  0  0  0  0  0  0  0  0  0  0
    9.1576   -4.6236   15.8860 O   0  0  0  0  0  0  0  0  0  0  0  0
    9.1509   -5.9108   17.7177 C   0  0  0  0  0  0  0  0  0  0  0  0
    3.6373   -9.5349   16.0582 N   0  0  0  0  0  0  0  0  0  0  0  0
    9.9275   -4.8001   18.0438 N   0  0  0  0  0  0  0  0  0  0  0  0
    8.5908   -5.7425   16.4412 C   0  0  0  0  0  0  0  0  0  0  0  0
   10.5993   -4.8981   21.6068 C   0  0  0  0  0  0  0  0  0  0  0  0
   10.4258   -3.0106   23.0998 C   0  0  0  0  0  0  0  0  0  0  0  0
   10.2148   -3.4364   25.4200 C   0  0  0  0  0  0  0  0  0  0  0  0
    9.7853   -1.1840   24.4927 C   0  0  0  0  0  0  0  0  0  0  0  0
    5.0276   -8.5227   17.5352 C   0  0  0  0  0  0  0  0  0  0  0  0
    9.8187   -2.0895   25.5800 C   0  0  0  0  0  0  0  0  0  0  0  0
    5.6473   -8.7216   15.3158 C   0  0  0  0  0  0  0  0  0  0  0  0
   10.7581   -3.1233   19.4720 N   0  0  0  0  0  0  0  0  0  0  0  0
    9.9571   -4.0573   16.8866 C   0  0  0  0  0  0  0  0  0  0  0  0
    7.6213   -6.5618   16.0087 C   0  0  0  0  0  0  0  0  0  0  0  0
   10.8583   -2.6527   20.7222 C   0  0  0  0  0  0  0  0  0  0  0  0
   10.6412   -3.5089   21.7936 C   0  0  0  0  0  0  0  0  0  0  0  0
   10.4972   -3.8968   24.1589 C   0  0  0  0  0  0  0  0  0  0  0  0
    5.9260   -8.2736   16.5517 C   0  0  0  0  0  0  0  0  0  0  0  0
    3.8816   -9.1166   17.2493 C   0  0  0  0  0  0  0  0  0  0  0  0
   10.1297   -1.6575   23.2324 C   0  0  0  0  0  0  0  0  0  0  0  0
    9.4684   -1.6929   26.7263 F   0  0  0  0  0  0  0  0  0  0  0  0
    7.7963   -7.7906   17.9837 C   0  0  0  0  0  0  0  0  0  0  0  0
   10.5884   -3.0725   16.7902 O   0  0  0  0  0  0  0  0  0  0  0  0
   10.4323   -5.3494   20.3516 C   0  0  0  0  0  0  0  0  0  0  0  0
    7.1156   -7.5454   16.8218 C   0  0  0  0  0  0  0  0  0  0  0  0
   10.3885   -4.4388   19.2773 C   0  0  0  0  0  0  0  0  0  0  0  0
    4.5160   -9.3822   15.0841 C   0  0  0  0  0  0  0  0  0  0  0  0
  1  3  4  0
  1 24  4  0
  2  6  4  0
  2 15  4  0
  3  5  4  0
  3  6  4  0
  4 21  4  0
  4 29  4  0
  5 15  4  0
  5 28  1  0
  6 16  4  0
  7 18  4  0
  7 26  4  0
  8 18  1  0
  8 19  4  0
  8 22  4  0
  9 12  4  0
  9 19  4  0
 10 12  4  0
 10 22  4  0
 11 20  4  0
 11 21  4  0
 12 23  1  0
 13 20  4  0
 13 29  4  0
 14 17  4  0
 14 28  4  0
 15 25  2  0
 16 27  4  0
 17 18  4  0
 20 27  1  0
 24 27  4  0
 26 28  4  0
M  END
$$$$

 Created by Python create_sdf_string function

 29 33  0  0  0  0  0  0  0  0999 V2000
    8.8270   -7.0288   18.4251 C   0  0  0  0  0  0  0  0  0  0  0  0
    9.1576   -4.6236   15.8860 O   0  0  0  0  0  0  0  0  0  0  0  0
    9.1509   -5.9108   17.7177 C   0  0  0  0  0  0  0  0  0  0  0  0
    3.6373   -9.5349   16.0582 N   0  0  0  0  0  0  0  0  0  0  0  0
    9.9275   -4.8001   18.0438 N   0  0  0  0  0  0  0  0  0  0  0  0
    8.5908   -5.7425   16.4412 C   0  0  0  0  0  0  0  0  0  0  0  0
   10.5993   -4.8981   21.6068 C   0  0  0  0  0  0  0  0  0  0  0  0
   10.4258   -3.0106   23.0998 C   0  0  0  0  0  0  0  0  0  0  0  0
   10.2148   -3.4364   25.4200 C   0  0  0  0  0  0  0  0  0  0  0  0
    9.7853   -1.1840   24.4927 C   0  0  0  0  0  0  0  0  0  0  0  0
    5.0276   -8.5227   17.5352 C   0  0  0  0  0  0  0  0  0  0  0  0
    9.8187   -2.0895   25.5800 C   0  0  0  0  0  0  0  0  0  0  0  0
    5.6473   -8.7216   15.3158 C   0  0  0  0  0  0  0  0  0  0  0  0
   10.7581   -3.1233   19.4720 N   0  0  0  0  0  0  0  0  0  0  0  0
    9.9571   -4.0573   16.8866 C   0  0  0  0  0  0  0  0  0  0  0  0
    7.6213   -6.5618   16.0087 C   0  0  0  0  0  0  0  0  0  0  0  0
   10.8583   -2.6527   20.7222 C   0  0  0  0  0  0  0  0  0  0  0  0
   10.6412   -3.5089   21.7936 C   0  0  0  0  0  0  0  0  0  0  0  0
   10.4972   -3.8968   24.1589 C   0  0  0  0  0  0  0  0  0  0  0  0
    5.9260   -8.2736   16.5517 C   0  0  0  0  0  0  0  0  0  0  0  0
    3.8816   -9.1166   17.2493 C   0  0  0  0  0  0  0  0  0  0  0  0
   10.1297   -1.6575   23.2324 C   0  0  0  0  0  0  0  0  0  0  0  0
    9.4684   -1.6929   26.7263 F   0  0  0  0  0  0  0  0  0  0  0  0
    7.7963   -7.7906   17.9837 C   0  0  0  0  0  0  0  0  0  0  0  0
   10.5884   -3.0725   16.7902 O   0  0  0  0  0  0  0  0  0  0  0  0
   10.4323   -5.3494   20.3516 C   0  0  0  0  0  0  0  0  0  0  0  0
    7.1156   -7.5454   16.8218 C   0  0  0  0  0  0  0  0  0  0  0  0
   10.3885   -4.4388   19.2773 C   0  0  0  0  0  0  0  0  0  0  0  0
    4.5160   -9.3822   15.0841 C   0  0  0  0  0  0  0  0  0  0  0  0
  1  3  4  0
  1 24  4  0
  2  6  4  0
  2 15  4  0
  3  5  4  0
  3  6  4  0
  4 21  4  0
  4 29  4  0
  5 15  4  0
  5 28  1  0
  6 16  4  0
  7 18  4  0
  7 26  4  0
  8 18  1  0
  8 19  4  0
  8 22  4  0
  9 12  4  0
  9 19  4  0
 10 12  4  0
 10 22  4  0
 11 20  4  0
 11 21  4  0
 12 23  1  0
 13 20  4  0
 13 29  4  0
 14 17  4  0
 14 28  4  0
 15 25  2  0
 16 27  4  0
 17 18  4  0
 20 27  1  0
 24 27  4  0
 26 28  4  0
M  END
$$$$

 Created by Python create_sdf_string function

 29 33  0  0  0  0  0  0  0  0999 V2000
    8.8270   -7.0288   18.4251 C   0  0  0  0  0  0  0  0  0  0  0  0
    9.1576   -4.6236   15.8860 O   0  0  0  0  0  0  0  0  0  0  0  0
    9.1509   -5.9108   17.7177 C   0  0  0  0  0  0  0  0  0  0  0  0
    3.6373   -9.5349   16.0582 N   0  0  0  0  0  0  0  0  0  0  0  0
    9.9275   -4.8001   18.0438 N   0  0  0  0  0  0  0  0  0  0  0  0
    8.5908   -5.7425   16.4412 C   0  0  0  0  0  0  0  0  0  0  0  0
   10.5993   -4.8981   21.6068 C   0  0  0  0  0  0  0  0  0  0  0  0
   10.4258   -3.0106   23.0998 C   0  0  0  0  0  0  0  0  0  0  0  0
   10.2148   -3.4364   25.4200 C   0  0  0  0  0  0  0  0  0  0  0  0
    9.7853   -1.1840   24.4927 C   0  0  0  0  0  0  0  0  0  0  0  0
    5.0276   -8.5227   17.5352 C   0  0  0  0  0  0  0  0  0  0  0  0
    9.8187   -2.0895   25.5800 C   0  0  0  0  0  0  0  0  0  0  0  0
    5.6473   -8.7216   15.3158 C   0  0  0  0  0  0  0  0  0  0  0  0
   10.7581   -3.1233   19.4720 N   0  0  0  0  0  0  0  0  0  0  0  0
    9.9571   -4.0573   16.8866 C   0  0  0  0  0  0  0  0  0  0  0  0
    7.6213   -6.5618   16.0087 C   0  0  0  0  0  0  0  0  0  0  0  0
   10.8583   -2.6527   20.7222 C   0  0  0  0  0  0  0  0  0  0  0  0
   10.6412   -3.5089   21.7936 C   0  0  0  0  0  0  0  0  0  0  0  0
   10.4972   -3.8968   24.1589 C   0  0  0  0  0  0  0  0  0  0  0  0
    5.9260   -8.2736   16.5517 C   0  0  0  0  0  0  0  0  0  0  0  0
    3.8816   -9.1166   17.2493 C   0  0  0  0  0  0  0  0  0  0  0  0
   10.1297   -1.6575   23.2324 C   0  0  0  0  0  0  0  0  0  0  0  0
    9.4684   -1.6929   26.7263 F   0  0  0  0  0  0  0  0  0  0  0  0
    7.7963   -7.7906   17.9837 C   0  0  0  0  0  0  0  0  0  0  0  0
   10.5884   -3.0725   16.7902 O   0  0  0  0  0  0  0  0  0  0  0  0
   10.4323   -5.3494   20.3516 C   0  0  0  0  0  0  0  0  0  0  0  0
    7.1156   -7.5454   16.8218 C   0  0  0  0  0  0  0  0  0  0  0  0
   10.3885   -4.4388   19.2773 C   0  0  0  0  0  0  0  0  0  0  0  0
    4.5160   -9.3822   15.0841 C   0  0  0  0  0  0  0  0  0  0  0  0
  1  3  4  0
  1 24  4  0
  2  6  4  0
  2 15  4  0
  3  5  4  0
  3  6  4  0
  4 21  4  0
  4 29  4  0
  5 15  4  0
  5 28  1  0
  6 16  4  0
  7 18  4  0
  7 26  4  0
  8 18  1  0
  8 19  4  0
  8 22  4  0
  9 12  4  0
  9 19  4  0
 10 12  4  0
 10 22  4  0
 11 20  4  0
 11 21  4  0
 12 23  1  0
 13 20  4  0
 13 29  4  0
 14 17  4  0
 14 28  4  0
 15 25  2  0
 16 27  4  0
 17 18  4  0
 20 27  1  0
 24 27  4  0
 26 28  4  0
M  END
$$$$

 Created by Python create_sdf_string function

 29 33  0  0  0  0  0  0  0  0999 V2000
    8.8270   -7.0288   18.4251 C   0  0  0  0  0  0  0  0  0  0  0  0
    9.1576   -4.6236   15.8860 O   0  0  0  0  0  0  0  0  0  0  0  0
    9.1509   -5.9108   17.7177 C   0  0  0  0  0  0  0  0  0  0  0  0
    3.6373   -9.5349   16.0582 N   0  0  0  0  0  0  0  0  0  0  0  0
    9.9275   -4.8001   18.0438 N   0  0  0  0  0  0  0  0  0  0  0  0
    8.5908   -5.7425   16.4412 C   0  0  0  0  0  0  0  0  0  0  0  0
   10.5993   -4.8981   21.6068 C   0  0  0  0  0  0  0  0  0  0  0  0
   10.4258   -3.0106   23.0998 C   0  0  0  0  0  0  0  0  0  0  0  0
   10.2148   -3.4364   25.4200 C   0  0  0  0  0  0  0  0  0  0  0  0
    9.7853   -1.1840   24.4927 C   0  0  0  0  0  0  0  0  0  0  0  0
    5.0276   -8.5227   17.5352 C   0  0  0  0  0  0  0  0  0  0  0  0
    9.8187   -2.0895   25.5800 C   0  0  0  0  0  0  0  0  0  0  0  0
    5.6473   -8.7216   15.3158 C   0  0  0  0  0  0  0  0  0  0  0  0
   10.7581   -3.1233   19.4720 N   0  0  0  0  0  0  0  0  0  0  0  0
    9.9571   -4.0573   16.8866 C   0  0  0  0  0  0  0  0  0  0  0  0
    7.6213   -6.5618   16.0087 C   0  0  0  0  0  0  0  0  0  0  0  0
   10.8583   -2.6527   20.7222 C   0  0  0  0  0  0  0  0  0  0  0  0
   10.6412   -3.5089   21.7936 C   0  0  0  0  0  0  0  0  0  0  0  0
   10.4972   -3.8968   24.1589 C   0  0  0  0  0  0  0  0  0  0  0  0
    5.9260   -8.2736   16.5517 C   0  0  0  0  0  0  0  0  0  0  0  0
    3.8816   -9.1166   17.2493 C   0  0  0  0  0  0  0  0  0  0  0  0
   10.1297   -1.6575   23.2324 C   0  0  0  0  0  0  0  0  0  0  0  0
    9.4684   -1.6929   26.7263 F   0  0  0  0  0  0  0  0  0  0  0  0
    7.7963   -7.7906   17.9837 C   0  0  0  0  0  0  0  0  0  0  0  0
   10.5884   -3.0725   16.7902 O   0  0  0  0  0  0  0  0  0  0  0  0
   10.4323   -5.3494   20.3516 C   0  0  0  0  0  0  0  0  0  0  0  0
    7.1156   -7.5454   16.8218 C   0  0  0  0  0  0  0  0  0  0  0  0
   10.3885   -4.4388   19.2773 C   0  0  0  0  0  0  0  0  0  0  0  0
    4.5160   -9.3822   15.0841 C   0  0  0  0  0  0  0  0  0  0  0  0
  1  3  4  0
  1 24  4  0
  2  6  4  0
  2 15  4  0
  3  5  4  0
  3  6  4  0
  4 21  4  0
  4 29  4  0
  5 15  4  0
  5 28  1  0
  6 16  4  0
  7 18  4  0
  7 26  4  0
  8 18  1  0
  8 19  4  0
  8 22  4  0
  9 12  4  0
  9 19  4  0
 10 12  4  0
 10 22  4  0
 11 20  4  0
 11 21  4  0
 12 23  1  0
 13 20  4  0
 13 29  4  0
 14 17  4  0
 14 28  4  0
 15 25  2  0
 16 27  4  0
 17 18  4  0
 20 27  1  0
 24 27  4  0
 26 28  4  0
M  END
$$$$

 Created by Python create_sdf_string function

 29 33  0  0  0  0  0  0  0  0999 V2000
    8.8270   -7.0288   18.4251 C   0  0  0  0  0  0  0  0  0  0  0  0
    9.1576   -4.6236   15.8860 O   0  0  0  0  0  0  0  0  0  0  0  0
    9.1509   -5.9108   17.7177 C   0  0  0  0  0  0  0  0  0  0  0  0
    3.6373   -9.5349   16.0582 N   0  0  0  0  0  0  0  0  0  0  0  0
    9.9275   -4.8001   18.0438 N   0  0  0  0  0  0  0  0  0  0  0  0
    8.5908   -5.7425   16.4412 C   0  0  0  0  0  0  0  0  0  0  0  0
   10.5993   -4.8981   21.6068 C   0  0  0  0  0  0  0  0  0  0  0  0
   10.4258   -3.0106   23.0998 C   0  0  0  0  0  0  0  0  0  0  0  0
   10.2148   -3.4364   25.4200 C   0  0  0  0  0  0  0  0  0  0  0  0
    9.7853   -1.1840   24.4927 C   0  0  0  0  0  0  0  0  0  0  0  0
    5.0276   -8.5227   17.5352 C   0  0  0  0  0  0  0  0  0  0  0  0
    9.8187   -2.0895   25.5800 C   0  0  0  0  0  0  0  0  0  0  0  0
    5.6473   -8.7216   15.3158 C   0  0  0  0  0  0  0  0  0  0  0  0
   10.7581   -3.1233   19.4720 N   0  0  0  0  0  0  0  0  0  0  0  0
    9.9571   -4.0573   16.8866 C   0  0  0  0  0  0  0  0  0  0  0  0
    7.6213   -6.5618   16.0087 C   0  0  0  0  0  0  0  0  0  0  0  0
   10.8583   -2.6527   20.7222 C   0  0  0  0  0  0  0  0  0  0  0  0
   10.6412   -3.5089   21.7936 C   0  0  0  0  0  0  0  0  0  0  0  0
   10.4972   -3.8968   24.1589 C   0  0  0  0  0  0  0  0  0  0  0  0
    5.9260   -8.2736   16.5517 C   0  0  0  0  0  0  0  0  0  0  0  0
    3.8816   -9.1166   17.2493 C   0  0  0  0  0  0  0  0  0  0  0  0
   10.1297   -1.6575   23.2324 C   0  0  0  0  0  0  0  0  0  0  0  0
    9.4684   -1.6929   26.7263 F   0  0  0  0  0  0  0  0  0  0  0  0
    7.7963   -7.7906   17.9837 C   0  0  0  0  0  0  0  0  0  0  0  0
   10.5884   -3.0725   16.7902 O   0  0  0  0  0  0  0  0  0  0  0  0
   10.4323   -5.3494   20.3516 C   0  0  0  0  0  0  0  0  0  0  0  0
    7.1156   -7.5454   16.8218 C   0  0  0  0  0  0  0  0  0  0  0  0
   10.3885   -4.4388   19.2773 C   0  0  0  0  0  0  0  0  0  0  0  0
    4.5160   -9.3822   15.0841 C   0  0  0  0  0  0  0  0  0  0  0  0
  1  3  4  0
  1 24  4  0
  2  6  4  0
  2 15  4  0
  3  5  4  0
  3  6  4  0
  4 21  4  0
  4 29  4  0
  5 15  4  0
  5 28  1  0
  6 16  4  0
  7 18  4  0
  7 26  4  0
  8 18  1  0
  8 19  4  0
  8 22  4  0
  9 12  4  0
  9 19  4  0
 10 12  4  0
 10 22  4  0
 11 20  4  0
 11 21  4  0
 12 23  1  0
 13 20  4  0
 13 29  4  0
 14 17  4  0
 14 28  4  0
 15 25  2  0
 16 27  4  0
 17 18  4  0
 20 27  1  0
 24 27  4  0
 26 28  4  0
M  END
$$$$

 Created by Python create_sdf_string function

 29 33  0  0  0  0  0  0  0  0999 V2000
    8.8270   -7.0288   18.4251 C   0  0  0  0  0  0  0  0  0  0  0  0
    9.1576   -4.6236   15.8860 O   0  0  0  0  0  0  0  0  0  0  0  0
    9.1509   -5.9108   17.7177 C   0  0  0  0  0  0  0  0  0  0  0  0
    3.6373   -9.5349   16.0582 N   0  0  0  0  0  0  0  0  0  0  0  0
    9.9275   -4.8001   18.0438 N   0  0  0  0  0  0  0  0  0  0  0  0
    8.5908   -5.7425   16.4412 C   0  0  0  0  0  0  0  0  0  0  0  0
   10.5993   -4.8981   21.6068 C   0  0  0  0  0  0  0  0  0  0  0  0
   10.4258   -3.0106   23.0998 C   0  0  0  0  0  0  0  0  0  0  0  0
   10.2148   -3.4364   25.4200 C   0  0  0  0  0  0  0  0  0  0  0  0
    9.7853   -1.1840   24.4927 C   0  0  0  0  0  0  0  0  0  0  0  0
    5.0276   -8.5227   17.5352 C   0  0  0  0  0  0  0  0  0  0  0  0
    9.8187   -2.0895   25.5800 C   0  0  0  0  0  0  0  0  0  0  0  0
    5.6473   -8.7216   15.3158 C   0  0  0  0  0  0  0  0  0  0  0  0
   10.7581   -3.1233   19.4720 N   0  0  0  0  0  0  0  0  0  0  0  0
    9.9571   -4.0573   16.8866 C   0  0  0  0  0  0  0  0  0  0  0  0
    7.6213   -6.5618   16.0087 C   0  0  0  0  0  0  0  0  0  0  0  0
   10.8583   -2.6527   20.7222 C   0  0  0  0  0  0  0  0  0  0  0  0
   10.6412   -3.5089   21.7936 C   0  0  0  0  0  0  0  0  0  0  0  0
   10.4972   -3.8968   24.1589 C   0  0  0  0  0  0  0  0  0  0  0  0
    5.9260   -8.2736   16.5517 C   0  0  0  0  0  0  0  0  0  0  0  0
    3.8816   -9.1166   17.2493 C   0  0  0  0  0  0  0  0  0  0  0  0
   10.1297   -1.6575   23.2324 C   0  0  0  0  0  0  0  0  0  0  0  0
    9.4684   -1.6929   26.7263 F   0  0  0  0  0  0  0  0  0  0  0  0
    7.7963   -7.7906   17.9837 C   0  0  0  0  0  0  0  0  0  0  0  0
   10.5884   -3.0725   16.7902 O   0  0  0  0  0  0  0  0  0  0  0  0
   10.4323   -5.3494   20.3516 C   0  0  0  0  0  0  0  0  0  0  0  0
    7.1156   -7.5454   16.8218 C   0  0  0  0  0  0  0  0  0  0  0  0
   10.3885   -4.4388   19.2773 C   0  0  0  0  0  0  0  0  0  0  0  0
    4.5160   -9.3822   15.0841 C   0  0  0  0  0  0  0  0  0  0  0  0
  1  3  4  0
  1 24  4  0
  2  6  4  0
  2 15  4  0
  3  5  4  0
  3  6  4  0
  4 21  4  0
  4 29  4  0
  5 15  4  0
  5 28  1  0
  6 16  4  0
  7 18  4  0
  7 26  4  0
  8 18  1  0
  8 19  4  0
  8 22  4  0
  9 12  4  0
  9 19  4  0
 10 12  4  0
 10 22  4  0
 11 20  4  0
 11 21  4  0
 12 23  1  0
 13 20  4  0
 13 29  4  0
 14 17  4  0
 14 28  4  0
 15 25  2  0
 16 27  4  0
 17 18  4  0
 20 27  1  0
 24 27  4  0
 26 28  4  0
M  END
$$$$

 Created by Python create_sdf_string function

 29 33  0  0  0  0  0  0  0  0999 V2000
    8.8270   -7.0288   18.4251 C   0  0  0  0  0  0  0  0  0  0  0  0
    9.1576   -4.6236   15.8860 O   0  0  0  0  0  0  0  0  0  0  0  0
    9.1509   -5.9108   17.7177 C   0  0  0  0  0  0  0  0  0  0  0  0
    3.6373   -9.5349   16.0582 N   0  0  0  0  0  0  0  0  0  0  0  0
    9.9275   -4.8001   18.0438 N   0  0  0  0  0  0  0  0  0  0  0  0
    8.5908   -5.7425   16.4412 C   0  0  0  0  0  0  0  0  0  0  0  0
   10.5993   -4.8981   21.6068 C   0  0  0  0  0  0  0  0  0  0  0  0
   10.4258   -3.0106   23.0998 C   0  0  0  0  0  0  0  0  0  0  0  0
   10.2148   -3.4364   25.4200 C   0  0  0  0  0  0  0  0  0  0  0  0
    9.7853   -1.1840   24.4927 C   0  0  0  0  0  0  0  0  0  0  0  0
    5.0276   -8.5227   17.5352 C   0  0  0  0  0  0  0  0  0  0  0  0
    9.8187   -2.0895   25.5800 C   0  0  0  0  0  0  0  0  0  0  0  0
    5.6473   -8.7216   15.3158 C   0  0  0  0  0  0  0  0  0  0  0  0
   10.7581   -3.1233   19.4720 N   0  0  0  0  0  0  0  0  0  0  0  0
    9.9571   -4.0573   16.8866 C   0  0  0  0  0  0  0  0  0  0  0  0
    7.6213   -6.5618   16.0087 C   0  0  0  0  0  0  0  0  0  0  0  0
   10.8583   -2.6527   20.7222 C   0  0  0  0  0  0  0  0  0  0  0  0
   10.6412   -3.5089   21.7936 C   0  0  0  0  0  0  0  0  0  0  0  0
   10.4972   -3.8968   24.1589 C   0  0  0  0  0  0  0  0  0  0  0  0
    5.9260   -8.2736   16.5517 C   0  0  0  0  0  0  0  0  0  0  0  0
    3.8816   -9.1166   17.2493 C   0  0  0  0  0  0  0  0  0  0  0  0
   10.1297   -1.6575   23.2324 C   0  0  0  0  0  0  0  0  0  0  0  0
    9.4684   -1.6929   26.7263 F   0  0  0  0  0  0  0  0  0  0  0  0
    7.7963   -7.7906   17.9837 C   0  0  0  0  0  0  0  0  0  0  0  0
   10.5884   -3.0725   16.7902 O   0  0  0  0  0  0  0  0  0  0  0  0
   10.4323   -5.3494   20.3516 C   0  0  0  0  0  0  0  0  0  0  0  0
    7.1156   -7.5454   16.8218 C   0  0  0  0  0  0  0  0  0  0  0  0
   10.3885   -4.4388   19.2773 C   0  0  0  0  0  0  0  0  0  0  0  0
    4.5160   -9.3822   15.0841 C   0  0  0  0  0  0  0  0  0  0  0  0
  1  3  4  0
  1 24  4  0
  2  6  4  0
  2 15  4  0
  3  5  4  0
  3  6  4  0
  4 21  4  0
  4 29  4  0
  5 15  4  0
  5 28  1  0
  6 16  4  0
  7 18  4  0
  7 26  4  0
  8 18  1  0
  8 19  4  0
  8 22  4  0
  9 12  4  0
  9 19  4  0
 10 12  4  0
 10 22  4  0
 11 20  4  0
 11 21  4  0
 12 23  1  0
 13 20  4  0
 13 29  4  0
 14 17  4  0
 14 28  4  0
 15 25  2  0
 16 27  4  0
 17 18  4  0
 20 27  1  0
 24 27  4  0
 26 28  4  0
M  END
$$$$

 Created by Python create_sdf_string function

 29 33  0  0  0  0  0  0  0  0999 V2000
    8.8270   -7.0288   18.4251 C   0  0  0  0  0  0  0  0  0  0  0  0
    9.1576   -4.6236   15.8860 O   0  0  0  0  0  0  0  0  0  0  0  0
    9.1509   -5.9108   17.7177 C   0  0  0  0  0  0  0  0  0  0  0  0
    3.6373   -9.5349   16.0582 N   0  0  0  0  0  0  0  0  0  0  0  0
    9.9275   -4.8001   18.0438 N   0  0  0  0  0  0  0  0  0  0  0  0
    8.5908   -5.7425   16.4412 C   0  0  0  0  0  0  0  0  0  0  0  0
   10.5993   -4.8981   21.6068 C   0  0  0  0  0  0  0  0  0  0  0  0
   10.4258   -3.0106   23.0998 C   0  0  0  0  0  0  0  0  0  0  0  0
   10.2148   -3.4364   25.4200 C   0  0  0  0  0  0  0  0  0  0  0  0
    9.7853   -1.1840   24.4927 C   0  0  0  0  0  0  0  0  0  0  0  0
    5.0276   -8.5227   17.5352 C   0  0  0  0  0  0  0  0  0  0  0  0
    9.8187   -2.0895   25.5800 C   0  0  0  0  0  0  0  0  0  0  0  0
    5.6473   -8.7216   15.3158 C   0  0  0  0  0  0  0  0  0  0  0  0
   10.7581   -3.1233   19.4720 N   0  0  0  0  0  0  0  0  0  0  0  0
    9.9571   -4.0573   16.8866 C   0  0  0  0  0  0  0  0  0  0  0  0
    7.6213   -6.5618   16.0087 C   0  0  0  0  0  0  0  0  0  0  0  0
   10.8583   -2.6527   20.7222 C   0  0  0  0  0  0  0  0  0  0  0  0
   10.6412   -3.5089   21.7936 C   0  0  0  0  0  0  0  0  0  0  0  0
   10.4972   -3.8968   24.1589 C   0  0  0  0  0  0  0  0  0  0  0  0
    5.9260   -8.2736   16.5517 C   0  0  0  0  0  0  0  0  0  0  0  0
    3.8816   -9.1166   17.2493 C   0  0  0  0  0  0  0  0  0  0  0  0
   10.1297   -1.6575   23.2324 C   0  0  0  0  0  0  0  0  0  0  0  0
    9.4684   -1.6929   26.7263 F   0  0  0  0  0  0  0  0  0  0  0  0
    7.7963   -7.7906   17.9837 C   0  0  0  0  0  0  0  0  0  0  0  0
   10.5884   -3.0725   16.7902 O   0  0  0  0  0  0  0  0  0  0  0  0
   10.4323   -5.3494   20.3516 C   0  0  0  0  0  0  0  0  0  0  0  0
    7.1156   -7.5454   16.8218 C   0  0  0  0  0  0  0  0  0  0  0  0
   10.3885   -4.4388   19.2773 C   0  0  0  0  0  0  0  0  0  0  0  0
    4.5160   -9.3822   15.0841 C   0  0  0  0  0  0  0  0  0  0  0  0
  1  3  4  0
  1 24  4  0
  2  6  4  0
  2 15  4  0
  3  5  4  0
  3  6  4  0
  4 21  4  0
  4 29  4  0
  5 15  4  0
  5 28  1  0
  6 16  4  0
  7 18  4  0
  7 26  4  0
  8 18  1  0
  8 19  4  0
  8 22  4  0
  9 12  4  0
  9 19  4  0
 10 12  4  0
 10 22  4  0
 11 20  4  0
 11 21  4  0
 12 23  1  0
 13 20  4  0
 13 29  4  0
 14 17  4  0
 14 28  4  0
 15 25  2  0
 16 27  4  0
 17 18  4  0
 20 27  1  0
 24 27  4  0
 26 28  4  0
M  END
$$$$

 Created by Python create_sdf_string function

 29 33  0  0  0  0  0  0  0  0999 V2000
    8.8270   -7.0288   18.4251 C   0  0  0  0  0  0  0  0  0  0  0  0
    9.1576   -4.6236   15.8860 O   0  0  0  0  0  0  0  0  0  0  0  0
    9.1509   -5.9108   17.7177 C   0  0  0  0  0  0  0  0  0  0  0  0
    3.6373   -9.5349   16.0582 N   0  0  0  0  0  0  0  0  0  0  0  0
    9.9275   -4.8001   18.0438 N   0  0  0  0  0  0  0  0  0  0  0  0
    8.5908   -5.7425   16.4412 C   0  0  0  0  0  0  0  0  0  0  0  0
   10.5993   -4.8981   21.6068 C   0  0  0  0  0  0  0  0  0  0  0  0
   10.4258   -3.0106   23.0998 C   0  0  0  0  0  0  0  0  0  0  0  0
   10.2148   -3.4364   25.4200 C   0  0  0  0  0  0  0  0  0  0  0  0
    9.7853   -1.1840   24.4927 C   0  0  0  0  0  0  0  0  0  0  0  0
    5.0276   -8.5227   17.5352 C   0  0  0  0  0  0  0  0  0  0  0  0
    9.8187   -2.0895   25.5800 C   0  0  0  0  0  0  0  0  0  0  0  0
    5.6473   -8.7216   15.3158 C   0  0  0  0  0  0  0  0  0  0  0  0
   10.7581   -3.1233   19.4720 N   0  0  0  0  0  0  0  0  0  0  0  0
    9.9571   -4.0573   16.8866 C   0  0  0  0  0  0  0  0  0  0  0  0
    7.6213   -6.5618   16.0087 C   0  0  0  0  0  0  0  0  0  0  0  0
   10.8583   -2.6527   20.7222 C   0  0  0  0  0  0  0  0  0  0  0  0
   10.6412   -3.5089   21.7936 C   0  0  0  0  0  0  0  0  0  0  0  0
   10.4972   -3.8968   24.1589 C   0  0  0  0  0  0  0  0  0  0  0  0
    5.9260   -8.2736   16.5517 C   0  0  0  0  0  0  0  0  0  0  0  0
    3.8816   -9.1166   17.2493 C   0  0  0  0  0  0  0  0  0  0  0  0
   10.1297   -1.6575   23.2324 C   0  0  0  0  0  0  0  0  0  0  0  0
    9.4684   -1.6929   26.7263 F   0  0  0  0  0  0  0  0  0  0  0  0
    7.7963   -7.7906   17.9837 C   0  0  0  0  0  0  0  0  0  0  0  0
   10.5884   -3.0725   16.7902 O   0  0  0  0  0  0  0  0  0  0  0  0
   10.4323   -5.3494   20.3516 C   0  0  0  0  0  0  0  0  0  0  0  0
    7.1156   -7.5454   16.8218 C   0  0  0  0  0  0  0  0  0  0  0  0
   10.3885   -4.4388   19.2773 C   0  0  0  0  0  0  0  0  0  0  0  0
    4.5160   -9.3822   15.0841 C   0  0  0  0  0  0  0  0  0  0  0  0
  1  3  4  0
  1 24  4  0
  2  6  4  0
  2 15  4  0
  3  5  4  0
  3  6  4  0
  4 21  4  0
  4 29  4  0
  5 15  4  0
  5 28  1  0
  6 16  4  0
  7 18  4  0
  7 26  4  0
  8 18  1  0
  8 19  4  0
  8 22  4  0
  9 12  4  0
  9 19  4  0
 10 12  4  0
 10 22  4  0
 11 20  4  0
 11 21  4  0
 12 23  1  0
 13 20  4  0
 13 29  4  0
 14 17  4  0
 14 28  4  0
 15 25  2  0
 16 27  4  0
 17 18  4  0
 20 27  1  0
 24 27  4  0
 26 28  4  0
M  END
$$$$

 Created by Python create_sdf_string function

 29 33  0  0  0  0  0  0  0  0999 V2000
    8.8270   -7.0288   18.4251 C   0  0  0  0  0  0  0  0  0  0  0  0
    9.1576   -4.6236   15.8860 O   0  0  0  0  0  0  0  0  0  0  0  0
    9.1509   -5.9108   17.7177 C   0  0  0  0  0  0  0  0  0  0  0  0
    3.6373   -9.5349   16.0582 N   0  0  0  0  0  0  0  0  0  0  0  0
    9.9275   -4.8001   18.0438 N   0  0  0  0  0  0  0  0  0  0  0  0
    8.5908   -5.7425   16.4412 C   0  0  0  0  0  0  0  0  0  0  0  0
   10.5993   -4.8981   21.6068 C   0  0  0  0  0  0  0  0  0  0  0  0
   10.4258   -3.0106   23.0998 C   0  0  0  0  0  0  0  0  0  0  0  0
   10.2148   -3.4364   25.4200 C   0  0  0  0  0  0  0  0  0  0  0  0
    9.7853   -1.1840   24.4927 C   0  0  0  0  0  0  0  0  0  0  0  0
    5.0276   -8.5227   17.5352 C   0  0  0  0  0  0  0  0  0  0  0  0
    9.8187   -2.0895   25.5800 C   0  0  0  0  0  0  0  0  0  0  0  0
    5.6473   -8.7216   15.3158 C   0  0  0  0  0  0  0  0  0  0  0  0
   10.7581   -3.1233   19.4720 N   0  0  0  0  0  0  0  0  0  0  0  0
    9.9571   -4.0573   16.8866 C   0  0  0  0  0  0  0  0  0  0  0  0
    7.6213   -6.5618   16.0087 C   0  0  0  0  0  0  0  0  0  0  0  0
   10.8583   -2.6527   20.7222 C   0  0  0  0  0  0  0  0  0  0  0  0
   10.6412   -3.5089   21.7936 C   0  0  0  0  0  0  0  0  0  0  0  0
   10.4972   -3.8968   24.1589 C   0  0  0  0  0  0  0  0  0  0  0  0
    5.9260   -8.2736   16.5517 C   0  0  0  0  0  0  0  0  0  0  0  0
    3.8816   -9.1166   17.2493 C   0  0  0  0  0  0  0  0  0  0  0  0
   10.1297   -1.6575   23.2324 C   0  0  0  0  0  0  0  0  0  0  0  0
    9.4684   -1.6929   26.7263 F   0  0  0  0  0  0  0  0  0  0  0  0
    7.7963   -7.7906   17.9837 C   0  0  0  0  0  0  0  0  0  0  0  0
   10.5884   -3.0725   16.7902 O   0  0  0  0  0  0  0  0  0  0  0  0
   10.4323   -5.3494   20.3516 C   0  0  0  0  0  0  0  0  0  0  0  0
    7.1156   -7.5454   16.8218 C   0  0  0  0  0  0  0  0  0  0  0  0
   10.3885   -4.4388   19.2773 C   0  0  0  0  0  0  0  0  0  0  0  0
    4.5160   -9.3822   15.0841 C   0  0  0  0  0  0  0  0  0  0  0  0
  1  3  4  0
  1 24  4  0
  2  6  4  0
  2 15  4  0
  3  5  4  0
  3  6  4  0
  4 21  4  0
  4 29  4  0
  5 15  4  0
  5 28  1  0
  6 16  4  0
  7 18  4  0
  7 26  4  0
  8 18  1  0
  8 19  4  0
  8 22  4  0
  9 12  4  0
  9 19  4  0
 10 12  4  0
 10 22  4  0
 11 20  4  0
 11 21  4  0
 12 23  1  0
 13 20  4  0
 13 29  4  0
 14 17  4  0
 14 28  4  0
 15 25  2  0
 16 27  4  0
 17 18  4  0
 20 27  1  0
 24 27  4  0
 26 28  4  0
M  END
$$$$

 Created by Python create_sdf_string function

 29 33  0  0  0  0  0  0  0  0999 V2000
    8.8270   -7.0288   18.4251 C   0  0  0  0  0  0  0  0  0  0  0  0
    9.1576   -4.6236   15.8860 O   0  0  0  0  0  0  0  0  0  0  0  0
    9.1509   -5.9108   17.7177 C   0  0  0  0  0  0  0  0  0  0  0  0
    3.6373   -9.5349   16.0582 N   0  0  0  0  0  0  0  0  0  0  0  0
    9.9275   -4.8001   18.0438 N   0  0  0  0  0  0  0  0  0  0  0  0
    8.5908   -5.7425   16.4412 C   0  0  0  0  0  0  0  0  0  0  0  0
   10.5993   -4.8981   21.6068 C   0  0  0  0  0  0  0  0  0  0  0  0
   10.4258   -3.0106   23.0998 C   0  0  0  0  0  0  0  0  0  0  0  0
   10.2148   -3.4364   25.4200 C   0  0  0  0  0  0  0  0  0  0  0  0
    9.7853   -1.1840   24.4927 C   0  0  0  0  0  0  0  0  0  0  0  0
    5.0276   -8.5227   17.5352 C   0  0  0  0  0  0  0  0  0  0  0  0
    9.8187   -2.0895   25.5800 C   0  0  0  0  0  0  0  0  0  0  0  0
    5.6473   -8.7216   15.3158 C   0  0  0  0  0  0  0  0  0  0  0  0
   10.7581   -3.1233   19.4720 N   0  0  0  0  0  0  0  0  0  0  0  0
    9.9571   -4.0573   16.8866 C   0  0  0  0  0  0  0  0  0  0  0  0
    7.6213   -6.5618   16.0087 C   0  0  0  0  0  0  0  0  0  0  0  0
   10.8583   -2.6527   20.7222 C   0  0  0  0  0  0  0  0  0  0  0  0
   10.6412   -3.5089   21.7936 C   0  0  0  0  0  0  0  0  0  0  0  0
   10.4972   -3.8968   24.1589 C   0  0  0  0  0  0  0  0  0  0  0  0
    5.9260   -8.2736   16.5517 C   0  0  0  0  0  0  0  0  0  0  0  0
    3.8816   -9.1166   17.2493 C   0  0  0  0  0  0  0  0  0  0  0  0
   10.1297   -1.6575   23.2324 C   0  0  0  0  0  0  0  0  0  0  0  0
    9.4684   -1.6929   26.7263 F   0  0  0  0  0  0  0  0  0  0  0  0
    7.7963   -7.7906   17.9837 C   0  0  0  0  0  0  0  0  0  0  0  0
   10.5884   -3.0725   16.7902 O   0  0  0  0  0  0  0  0  0  0  0  0
   10.4323   -5.3494   20.3516 C   0  0  0  0  0  0  0  0  0  0  0  0
    7.1156   -7.5454   16.8218 C   0  0  0  0  0  0  0  0  0  0  0  0
   10.3885   -4.4388   19.2773 C   0  0  0  0  0  0  0  0  0  0  0  0
    4.5160   -9.3822   15.0841 C   0  0  0  0  0  0  0  0  0  0  0  0
  1  3  4  0
  1 24  4  0
  2  6  4  0
  2 15  4  0
  3  5  4  0
  3  6  4  0
  4 21  4  0
  4 29  4  0
  5 15  4  0
  5 28  1  0
  6 16  4  0
  7 18  4  0
  7 26  4  0
  8 18  1  0
  8 19  4  0
  8 22  4  0
  9 12  4  0
  9 19  4  0
 10 12  4  0
 10 22  4  0
 11 20  4  0
 11 21  4  0
 12 23  1  0
 13 20  4  0
 13 29  4  0
 14 17  4  0
 14 28  4  0
 15 25  2  0
 16 27  4  0
 17 18  4  0
 20 27  1  0
 24 27  4  0
 26 28  4  0
M  END
$$$$

 Created by Python create_sdf_string function

 29 33  0  0  0  0  0  0  0  0999 V2000
    8.8270   -7.0288   18.4251 C   0  0  0  0  0  0  0  0  0  0  0  0
    9.1576   -4.6236   15.8860 O   0  0  0  0  0  0  0  0  0  0  0  0
    9.1509   -5.9108   17.7177 C   0  0  0  0  0  0  0  0  0  0  0  0
    3.6373   -9.5349   16.0582 N   0  0  0  0  0  0  0  0  0  0  0  0
    9.9275   -4.8001   18.0438 N   0  0  0  0  0  0  0  0  0  0  0  0
    8.5908   -5.7425   16.4412 C   0  0  0  0  0  0  0  0  0  0  0  0
   10.5993   -4.8981   21.6068 C   0  0  0  0  0  0  0  0  0  0  0  0
   10.4258   -3.0106   23.0998 C   0  0  0  0  0  0  0  0  0  0  0  0
   10.2148   -3.4364   25.4200 C   0  0  0  0  0  0  0  0  0  0  0  0
    9.7853   -1.1840   24.4927 C   0  0  0  0  0  0  0  0  0  0  0  0
    5.0276   -8.5227   17.5352 C   0  0  0  0  0  0  0  0  0  0  0  0
    9.8187   -2.0895   25.5800 C   0  0  0  0  0  0  0  0  0  0  0  0
    5.6473   -8.7216   15.3158 C   0  0  0  0  0  0  0  0  0  0  0  0
   10.7581   -3.1233   19.4720 N   0  0  0  0  0  0  0  0  0  0  0  0
    9.9571   -4.0573   16.8866 C   0  0  0  0  0  0  0  0  0  0  0  0
    7.6213   -6.5618   16.0087 C   0  0  0  0  0  0  0  0  0  0  0  0
   10.8583   -2.6527   20.7222 C   0  0  0  0  0  0  0  0  0  0  0  0
   10.6412   -3.5089   21.7936 C   0  0  0  0  0  0  0  0  0  0  0  0
   10.4972   -3.8968   24.1589 C   0  0  0  0  0  0  0  0  0  0  0  0
    5.9260   -8.2736   16.5517 C   0  0  0  0  0  0  0  0  0  0  0  0
    3.8816   -9.1166   17.2493 C   0  0  0  0  0  0  0  0  0  0  0  0
   10.1297   -1.6575   23.2324 C   0  0  0  0  0  0  0  0  0  0  0  0
    9.4684   -1.6929   26.7263 F   0  0  0  0  0  0  0  0  0  0  0  0
    7.7963   -7.7906   17.9837 C   0  0  0  0  0  0  0  0  0  0  0  0
   10.5884   -3.0725   16.7902 O   0  0  0  0  0  0  0  0  0  0  0  0
   10.4323   -5.3494   20.3516 C   0  0  0  0  0  0  0  0  0  0  0  0
    7.1156   -7.5454   16.8218 C   0  0  0  0  0  0  0  0  0  0  0  0
   10.3885   -4.4388   19.2773 C   0  0  0  0  0  0  0  0  0  0  0  0
    4.5160   -9.3822   15.0841 C   0  0  0  0  0  0  0  0  0  0  0  0
  1  3  4  0
  1 24  4  0
  2  6  4  0
  2 15  4  0
  3  5  4  0
  3  6  4  0
  4 21  4  0
  4 29  4  0
  5 15  4  0
  5 28  1  0
  6 16  4  0
  7 18  4  0
  7 26  4  0
  8 18  1  0
  8 19  4  0
  8 22  4  0
  9 12  4  0
  9 19  4  0
 10 12  4  0
 10 22  4  0
 11 20  4  0
 11 21  4  0
 12 23  1  0
 13 20  4  0
 13 29  4  0
 14 17  4  0
 14 28  4  0
 15 25  2  0
 16 27  4  0
 17 18  4  0
 20 27  1  0
 24 27  4  0
 26 28  4  0
M  END
$$$$

 Created by Python create_sdf_string function

 29 33  0  0  0  0  0  0  0  0999 V2000
    8.8270   -7.0288   18.4251 C   0  0  0  0  0  0  0  0  0  0  0  0
    9.1576   -4.6236   15.8860 O   0  0  0  0  0  0  0  0  0  0  0  0
    9.1509   -5.9108   17.7177 C   0  0  0  0  0  0  0  0  0  0  0  0
    3.6373   -9.5349   16.0582 N   0  0  0  0  0  0  0  0  0  0  0  0
    9.9275   -4.8001   18.0438 N   0  0  0  0  0  0  0  0  0  0  0  0
    8.5908   -5.7425   16.4412 C   0  0  0  0  0  0  0  0  0  0  0  0
   10.5993   -4.8981   21.6068 C   0  0  0  0  0  0  0  0  0  0  0  0
   10.4258   -3.0106   23.0998 C   0  0  0  0  0  0  0  0  0  0  0  0
   10.2148   -3.4364   25.4200 C   0  0  0  0  0  0  0  0  0  0  0  0
    9.7853   -1.1840   24.4927 C   0  0  0  0  0  0  0  0  0  0  0  0
    5.0276   -8.5227   17.5352 C   0  0  0  0  0  0  0  0  0  0  0  0
    9.8187   -2.0895   25.5800 C   0  0  0  0  0  0  0  0  0  0  0  0
    5.6473   -8.7216   15.3158 C   0  0  0  0  0  0  0  0  0  0  0  0
   10.7581   -3.1233   19.4720 N   0  0  0  0  0  0  0  0  0  0  0  0
    9.9571   -4.0573   16.8866 C   0  0  0  0  0  0  0  0  0  0  0  0
    7.6213   -6.5618   16.0087 C   0  0  0  0  0  0  0  0  0  0  0  0
   10.8583   -2.6527   20.7222 C   0  0  0  0  0  0  0  0  0  0  0  0
   10.6412   -3.5089   21.7936 C   0  0  0  0  0  0  0  0  0  0  0  0
   10.4972   -3.8968   24.1589 C   0  0  0  0  0  0  0  0  0  0  0  0
    5.9260   -8.2736   16.5517 C   0  0  0  0  0  0  0  0  0  0  0  0
    3.8816   -9.1166   17.2493 C   0  0  0  0  0  0  0  0  0  0  0  0
   10.1297   -1.6575   23.2324 C   0  0  0  0  0  0  0  0  0  0  0  0
    9.4684   -1.6929   26.7263 F   0  0  0  0  0  0  0  0  0  0  0  0
    7.7963   -7.7906   17.9837 C   0  0  0  0  0  0  0  0  0  0  0  0
   10.5884   -3.0725   16.7902 O   0  0  0  0  0  0  0  0  0  0  0  0
   10.4323   -5.3494   20.3516 C   0  0  0  0  0  0  0  0  0  0  0  0
    7.1156   -7.5454   16.8218 C   0  0  0  0  0  0  0  0  0  0  0  0
   10.3885   -4.4388   19.2773 C   0  0  0  0  0  0  0  0  0  0  0  0
    4.5160   -9.3822   15.0841 C   0  0  0  0  0  0  0  0  0  0  0  0
  1  3  4  0
  1 24  4  0
  2  6  4  0
  2 15  4  0
  3  5  4  0
  3  6  4  0
  4 21  4  0
  4 29  4  0
  5 15  4  0
  5 28  1  0
  6 16  4  0
  7 18  4  0
  7 26  4  0
  8 18  1  0
  8 19  4  0
  8 22  4  0
  9 12  4  0
  9 19  4  0
 10 12  4  0
 10 22  4  0
 11 20  4  0
 11 21  4  0
 12 23  1  0
 13 20  4  0
 13 29  4  0
 14 17  4  0
 14 28  4  0
 15 25  2  0
 16 27  4  0
 17 18  4  0
 20 27  1  0
 24 27  4  0
 26 28  4  0
M  END
$$$$

 Created by Python create_sdf_string function

 29 33  0  0  0  0  0  0  0  0999 V2000
    8.8270   -7.0288   18.4251 C   0  0  0  0  0  0  0  0  0  0  0  0
    9.1576   -4.6236   15.8860 O   0  0  0  0  0  0  0  0  0  0  0  0
    9.1509   -5.9108   17.7177 C   0  0  0  0  0  0  0  0  0  0  0  0
    3.6373   -9.5349   16.0582 N   0  0  0  0  0  0  0  0  0  0  0  0
    9.9275   -4.8001   18.0438 N   0  0  0  0  0  0  0  0  0  0  0  0
    8.5908   -5.7425   16.4412 C   0  0  0  0  0  0  0  0  0  0  0  0
   10.5993   -4.8981   21.6068 C   0  0  0  0  0  0  0  0  0  0  0  0
   10.4258   -3.0106   23.0998 C   0  0  0  0  0  0  0  0  0  0  0  0
   10.2148   -3.4364   25.4200 C   0  0  0  0  0  0  0  0  0  0  0  0
    9.7853   -1.1840   24.4927 C   0  0  0  0  0  0  0  0  0  0  0  0
    5.0276   -8.5227   17.5352 C   0  0  0  0  0  0  0  0  0  0  0  0
    9.8187   -2.0895   25.5800 C   0  0  0  0  0  0  0  0  0  0  0  0
    5.6473   -8.7216   15.3158 C   0  0  0  0  0  0  0  0  0  0  0  0
   10.7581   -3.1233   19.4720 N   0  0  0  0  0  0  0  0  0  0  0  0
    9.9571   -4.0573   16.8866 C   0  0  0  0  0  0  0  0  0  0  0  0
    7.6213   -6.5618   16.0087 C   0  0  0  0  0  0  0  0  0  0  0  0
   10.8583   -2.6527   20.7222 C   0  0  0  0  0  0  0  0  0  0  0  0
   10.6412   -3.5089   21.7936 C   0  0  0  0  0  0  0  0  0  0  0  0
   10.4972   -3.8968   24.1589 C   0  0  0  0  0  0  0  0  0  0  0  0
    5.9260   -8.2736   16.5517 C   0  0  0  0  0  0  0  0  0  0  0  0
    3.8816   -9.1166   17.2493 C   0  0  0  0  0  0  0  0  0  0  0  0
   10.1297   -1.6575   23.2324 C   0  0  0  0  0  0  0  0  0  0  0  0
    9.4684   -1.6929   26.7263 F   0  0  0  0  0  0  0  0  0  0  0  0
    7.7963   -7.7906   17.9837 C   0  0  0  0  0  0  0  0  0  0  0  0
   10.5884   -3.0725   16.7902 O   0  0  0  0  0  0  0  0  0  0  0  0
   10.4323   -5.3494   20.3516 C   0  0  0  0  0  0  0  0  0  0  0  0
    7.1156   -7.5454   16.8218 C   0  0  0  0  0  0  0  0  0  0  0  0
   10.3885   -4.4388   19.2773 C   0  0  0  0  0  0  0  0  0  0  0  0
    4.5160   -9.3822   15.0841 C   0  0  0  0  0  0  0  0  0  0  0  0
  1  3  4  0
  1 24  4  0
  2  6  4  0
  2 15  4  0
  3  5  4  0
  3  6  4  0
  4 21  4  0
  4 29  4  0
  5 15  4  0
  5 28  1  0
  6 16  4  0
  7 18  4  0
  7 26  4  0
  8 18  1  0
  8 19  4  0
  8 22  4  0
  9 12  4  0
  9 19  4  0
 10 12  4  0
 10 22  4  0
 11 20  4  0
 11 21  4  0
 12 23  1  0
 13 20  4  0
 13 29  4  0
 14 17  4  0
 14 28  4  0
 15 25  2  0
 16 27  4  0
 17 18  4  0
 20 27  1  0
 24 27  4  0
 26 28  4  0
M  END
$$$$

 Created by Python create_sdf_string function

 29 33  0  0  0  0  0  0  0  0999 V2000
    8.8270   -7.0288   18.4251 C   0  0  0  0  0  0  0  0  0  0  0  0
    9.1576   -4.6236   15.8860 O   0  0  0  0  0  0  0  0  0  0  0  0
    9.1509   -5.9108   17.7177 C   0  0  0  0  0  0  0  0  0  0  0  0
    3.6373   -9.5349   16.0582 N   0  0  0  0  0  0  0  0  0  0  0  0
    9.9275   -4.8001   18.0438 N   0  0  0  0  0  0  0  0  0  0  0  0
    8.5908   -5.7425   16.4412 C   0  0  0  0  0  0  0  0  0  0  0  0
   10.5993   -4.8981   21.6068 C   0  0  0  0  0  0  0  0  0  0  0  0
   10.4258   -3.0106   23.0998 C   0  0  0  0  0  0  0  0  0  0  0  0
   10.2148   -3.4364   25.4200 C   0  0  0  0  0  0  0  0  0  0  0  0
    9.7853   -1.1840   24.4927 C   0  0  0  0  0  0  0  0  0  0  0  0
    5.0276   -8.5227   17.5352 C   0  0  0  0  0  0  0  0  0  0  0  0
    9.8187   -2.0895   25.5800 C   0  0  0  0  0  0  0  0  0  0  0  0
    5.6473   -8.7216   15.3158 C   0  0  0  0  0  0  0  0  0  0  0  0
   10.7581   -3.1233   19.4720 N   0  0  0  0  0  0  0  0  0  0  0  0
    9.9571   -4.0573   16.8866 C   0  0  0  0  0  0  0  0  0  0  0  0
    7.6213   -6.5618   16.0087 C   0  0  0  0  0  0  0  0  0  0  0  0
   10.8583   -2.6527   20.7222 C   0  0  0  0  0  0  0  0  0  0  0  0
   10.6412   -3.5089   21.7936 C   0  0  0  0  0  0  0  0  0  0  0  0
   10.4972   -3.8968   24.1589 C   0  0  0  0  0  0  0  0  0  0  0  0
    5.9260   -8.2736   16.5517 C   0  0  0  0  0  0  0  0  0  0  0  0
    3.8816   -9.1166   17.2493 C   0  0  0  0  0  0  0  0  0  0  0  0
   10.1297   -1.6575   23.2324 C   0  0  0  0  0  0  0  0  0  0  0  0
    9.4684   -1.6929   26.7263 F   0  0  0  0  0  0  0  0  0  0  0  0
    7.7963   -7.7906   17.9837 C   0  0  0  0  0  0  0  0  0  0  0  0
   10.5884   -3.0725   16.7902 O   0  0  0  0  0  0  0  0  0  0  0  0
   10.4323   -5.3494   20.3516 C   0  0  0  0  0  0  0  0  0  0  0  0
    7.1156   -7.5454   16.8218 C   0  0  0  0  0  0  0  0  0  0  0  0
   10.3885   -4.4388   19.2773 C   0  0  0  0  0  0  0  0  0  0  0  0
    4.5160   -9.3822   15.0841 C   0  0  0  0  0  0  0  0  0  0  0  0
  1  3  4  0
  1 24  4  0
  2  6  4  0
  2 15  4  0
  3  5  4  0
  3  6  4  0
  4 21  4  0
  4 29  4  0
  5 15  4  0
  5 28  1  0
  6 16  4  0
  7 18  4  0
  7 26  4  0
  8 18  1  0
  8 19  4  0
  8 22  4  0
  9 12  4  0
  9 19  4  0
 10 12  4  0
 10 22  4  0
 11 20  4  0
 11 21  4  0
 12 23  1  0
 13 20  4  0
 13 29  4  0
 14 17  4  0
 14 28  4  0
 15 25  2  0
 16 27  4  0
 17 18  4  0
 20 27  1  0
 24 27  4  0
 26 28  4  0
M  END
$$$$

 Created by Python create_sdf_string function

 29 33  0  0  0  0  0  0  0  0999 V2000
    8.8270   -7.0288   18.4251 C   0  0  0  0  0  0  0  0  0  0  0  0
    9.1576   -4.6236   15.8860 O   0  0  0  0  0  0  0  0  0  0  0  0
    9.1509   -5.9108   17.7177 C   0  0  0  0  0  0  0  0  0  0  0  0
    3.6373   -9.5349   16.0582 N   0  0  0  0  0  0  0  0  0  0  0  0
    9.9275   -4.8001   18.0438 N   0  0  0  0  0  0  0  0  0  0  0  0
    8.5908   -5.7425   16.4412 C   0  0  0  0  0  0  0  0  0  0  0  0
   10.5993   -4.8981   21.6068 C   0  0  0  0  0  0  0  0  0  0  0  0
   10.4258   -3.0106   23.0998 C   0  0  0  0  0  0  0  0  0  0  0  0
   10.2148   -3.4364   25.4200 C   0  0  0  0  0  0  0  0  0  0  0  0
    9.7853   -1.1840   24.4927 C   0  0  0  0  0  0  0  0  0  0  0  0
    5.0276   -8.5227   17.5352 C   0  0  0  0  0  0  0  0  0  0  0  0
    9.8187   -2.0895   25.5800 C   0  0  0  0  0  0  0  0  0  0  0  0
    5.6473   -8.7216   15.3158 C   0  0  0  0  0  0  0  0  0  0  0  0
   10.7581   -3.1233   19.4720 N   0  0  0  0  0  0  0  0  0  0  0  0
    9.9571   -4.0573   16.8866 C   0  0  0  0  0  0  0  0  0  0  0  0
    7.6213   -6.5618   16.0087 C   0  0  0  0  0  0  0  0  0  0  0  0
   10.8583   -2.6527   20.7222 C   0  0  0  0  0  0  0  0  0  0  0  0
   10.6412   -3.5089   21.7936 C   0  0  0  0  0  0  0  0  0  0  0  0
   10.4972   -3.8968   24.1589 C   0  0  0  0  0  0  0  0  0  0  0  0
    5.9260   -8.2736   16.5517 C   0  0  0  0  0  0  0  0  0  0  0  0
    3.8816   -9.1166   17.2493 C   0  0  0  0  0  0  0  0  0  0  0  0
   10.1297   -1.6575   23.2324 C   0  0  0  0  0  0  0  0  0  0  0  0
    9.4684   -1.6929   26.7263 F   0  0  0  0  0  0  0  0  0  0  0  0
    7.7963   -7.7906   17.9837 C   0  0  0  0  0  0  0  0  0  0  0  0
   10.5884   -3.0725   16.7902 O   0  0  0  0  0  0  0  0  0  0  0  0
   10.4323   -5.3494   20.3516 C   0  0  0  0  0  0  0  0  0  0  0  0
    7.1156   -7.5454   16.8218 C   0  0  0  0  0  0  0  0  0  0  0  0
   10.3885   -4.4388   19.2773 C   0  0  0  0  0  0  0  0  0  0  0  0
    4.5160   -9.3822   15.0841 C   0  0  0  0  0  0  0  0  0  0  0  0
  1  3  4  0
  1 24  4  0
  2  6  4  0
  2 15  4  0
  3  5  4  0
  3  6  4  0
  4 21  4  0
  4 29  4  0
  5 15  4  0
  5 28  1  0
  6 16  4  0
  7 18  4  0
  7 26  4  0
  8 18  1  0
  8 19  4  0
  8 22  4  0
  9 12  4  0
  9 19  4  0
 10 12  4  0
 10 22  4  0
 11 20  4  0
 11 21  4  0
 12 23  1  0
 13 20  4  0
 13 29  4  0
 14 17  4  0
 14 28  4  0
 15 25  2  0
 16 27  4  0
 17 18  4  0
 20 27  1  0
 24 27  4  0
 26 28  4  0
M  END
$$$$

 Created by Python create_sdf_string function

 29 33  0  0  0  0  0  0  0  0999 V2000
    8.8270   -7.0288   18.4251 C   0  0  0  0  0  0  0  0  0  0  0  0
    9.1576   -4.6236   15.8860 O   0  0  0  0  0  0  0  0  0  0  0  0
    9.1509   -5.9108   17.7177 C   0  0  0  0  0  0  0  0  0  0  0  0
    3.6373   -9.5349   16.0582 N   0  0  0  0  0  0  0  0  0  0  0  0
    9.9275   -4.8001   18.0438 N   0  0  0  0  0  0  0  0  0  0  0  0
    8.5908   -5.7425   16.4412 C   0  0  0  0  0  0  0  0  0  0  0  0
   10.5993   -4.8981   21.6068 C   0  0  0  0  0  0  0  0  0  0  0  0
   10.4258   -3.0106   23.0998 C   0  0  0  0  0  0  0  0  0  0  0  0
   10.2148   -3.4364   25.4200 C   0  0  0  0  0  0  0  0  0  0  0  0
    9.7853   -1.1840   24.4927 C   0  0  0  0  0  0  0  0  0  0  0  0
    5.0276   -8.5227   17.5352 C   0  0  0  0  0  0  0  0  0  0  0  0
    9.8187   -2.0895   25.5800 C   0  0  0  0  0  0  0  0  0  0  0  0
    5.6473   -8.7216   15.3158 C   0  0  0  0  0  0  0  0  0  0  0  0
   10.7581   -3.1233   19.4720 N   0  0  0  0  0  0  0  0  0  0  0  0
    9.9571   -4.0573   16.8866 C   0  0  0  0  0  0  0  0  0  0  0  0
    7.6213   -6.5618   16.0087 C   0  0  0  0  0  0  0  0  0  0  0  0
   10.8583   -2.6527   20.7222 C   0  0  0  0  0  0  0  0  0  0  0  0
   10.6412   -3.5089   21.7936 C   0  0  0  0  0  0  0  0  0  0  0  0
   10.4972   -3.8968   24.1589 C   0  0  0  0  0  0  0  0  0  0  0  0
    5.9260   -8.2736   16.5517 C   0  0  0  0  0  0  0  0  0  0  0  0
    3.8816   -9.1166   17.2493 C   0  0  0  0  0  0  0  0  0  0  0  0
   10.1297   -1.6575   23.2324 C   0  0  0  0  0  0  0  0  0  0  0  0
    9.4684   -1.6929   26.7263 F   0  0  0  0  0  0  0  0  0  0  0  0
    7.7963   -7.7906   17.9837 C   0  0  0  0  0  0  0  0  0  0  0  0
   10.5884   -3.0725   16.7902 O   0  0  0  0  0  0  0  0  0  0  0  0
   10.4323   -5.3494   20.3516 C   0  0  0  0  0  0  0  0  0  0  0  0
    7.1156   -7.5454   16.8218 C   0  0  0  0  0  0  0  0  0  0  0  0
   10.3885   -4.4388   19.2773 C   0  0  0  0  0  0  0  0  0  0  0  0
    4.5160   -9.3822   15.0841 C   0  0  0  0  0  0  0  0  0  0  0  0
  1  3  4  0
  1 24  4  0
  2  6  4  0
  2 15  4  0
  3  5  4  0
  3  6  4  0
  4 21  4  0
  4 29  4  0
  5 15  4  0
  5 28  1  0
  6 16  4  0
  7 18  4  0
  7 26  4  0
  8 18  1  0
  8 19  4  0
  8 22  4  0
  9 12  4  0
  9 19  4  0
 10 12  4  0
 10 22  4  0
 11 20  4  0
 11 21  4  0
 12 23  1  0
 13 20  4  0
 13 29  4  0
 14 17  4  0
 14 28  4  0
 15 25  2  0
 16 27  4  0
 17 18  4  0
 20 27  1  0
 24 27  4  0
 26 28  4  0
M  END
$$$$

 Created by Python create_sdf_string function

 29 33  0  0  0  0  0  0  0  0999 V2000
    8.8270   -7.0288   18.4251 C   0  0  0  0  0  0  0  0  0  0  0  0
    9.1576   -4.6236   15.8860 O   0  0  0  0  0  0  0  0  0  0  0  0
    9.1509   -5.9108   17.7177 C   0  0  0  0  0  0  0  0  0  0  0  0
    3.6373   -9.5349   16.0582 N   0  0  0  0  0  0  0  0  0  0  0  0
    9.9275   -4.8001   18.0438 N   0  0  0  0  0  0  0  0  0  0  0  0
    8.5908   -5.7425   16.4412 C   0  0  0  0  0  0  0  0  0  0  0  0
   10.5993   -4.8981   21.6068 C   0  0  0  0  0  0  0  0  0  0  0  0
   10.4258   -3.0106   23.0998 C   0  0  0  0  0  0  0  0  0  0  0  0
   10.2148   -3.4364   25.4200 C   0  0  0  0  0  0  0  0  0  0  0  0
    9.7853   -1.1840   24.4927 C   0  0  0  0  0  0  0  0  0  0  0  0
    5.0276   -8.5227   17.5352 C   0  0  0  0  0  0  0  0  0  0  0  0
    9.8187   -2.0895   25.5800 C   0  0  0  0  0  0  0  0  0  0  0  0
    5.6473   -8.7216   15.3158 C   0  0  0  0  0  0  0  0  0  0  0  0
   10.7581   -3.1233   19.4720 N   0  0  0  0  0  0  0  0  0  0  0  0
    9.9571   -4.0573   16.8866 C   0  0  0  0  0  0  0  0  0  0  0  0
    7.6213   -6.5618   16.0087 C   0  0  0  0  0  0  0  0  0  0  0  0
   10.8583   -2.6527   20.7222 C   0  0  0  0  0  0  0  0  0  0  0  0
   10.6412   -3.5089   21.7936 C   0  0  0  0  0  0  0  0  0  0  0  0
   10.4972   -3.8968   24.1589 C   0  0  0  0  0  0  0  0  0  0  0  0
    5.9260   -8.2736   16.5517 C   0  0  0  0  0  0  0  0  0  0  0  0
    3.8816   -9.1166   17.2493 C   0  0  0  0  0  0  0  0  0  0  0  0
   10.1297   -1.6575   23.2324 C   0  0  0  0  0  0  0  0  0  0  0  0
    9.4684   -1.6929   26.7263 F   0  0  0  0  0  0  0  0  0  0  0  0
    7.7963   -7.7906   17.9837 C   0  0  0  0  0  0  0  0  0  0  0  0
   10.5884   -3.0725   16.7902 O   0  0  0  0  0  0  0  0  0  0  0  0
   10.4323   -5.3494   20.3516 C   0  0  0  0  0  0  0  0  0  0  0  0
    7.1156   -7.5454   16.8218 C   0  0  0  0  0  0  0  0  0  0  0  0
   10.3885   -4.4388   19.2773 C   0  0  0  0  0  0  0  0  0  0  0  0
    4.5160   -9.3822   15.0841 C   0  0  0  0  0  0  0  0  0  0  0  0
  1  3  4  0
  1 24  4  0
  2  6  4  0
  2 15  4  0
  3  5  4  0
  3  6  4  0
  4 21  4  0
  4 29  4  0
  5 15  4  0
  5 28  1  0
  6 16  4  0
  7 18  4  0
  7 26  4  0
  8 18  1  0
  8 19  4  0
  8 22  4  0
  9 12  4  0
  9 19  4  0
 10 12  4  0
 10 22  4  0
 11 20  4  0
 11 21  4  0
 12 23  1  0
 13 20  4  0
 13 29  4  0
 14 17  4  0
 14 28  4  0
 15 25  2  0
 16 27  4  0
 17 18  4  0
 20 27  1  0
 24 27  4  0
 26 28  4  0
M  END
$$$$

 Created by Python create_sdf_string function

 29 33  0  0  0  0  0  0  0  0999 V2000
    8.8270   -7.0288   18.4251 C   0  0  0  0  0  0  0  0  0  0  0  0
    9.1576   -4.6236   15.8860 O   0  0  0  0  0  0  0  0  0  0  0  0
    9.1509   -5.9108   17.7177 C   0  0  0  0  0  0  0  0  0  0  0  0
    3.6373   -9.5349   16.0582 N   0  0  0  0  0  0  0  0  0  0  0  0
    9.9275   -4.8001   18.0438 N   0  0  0  0  0  0  0  0  0  0  0  0
    8.5908   -5.7425   16.4412 C   0  0  0  0  0  0  0  0  0  0  0  0
   10.5993   -4.8981   21.6068 C   0  0  0  0  0  0  0  0  0  0  0  0
   10.4258   -3.0106   23.0998 C   0  0  0  0  0  0  0  0  0  0  0  0
   10.2148   -3.4364   25.4200 C   0  0  0  0  0  0  0  0  0  0  0  0
    9.7853   -1.1840   24.4927 C   0  0  0  0  0  0  0  0  0  0  0  0
    5.0276   -8.5227   17.5352 C   0  0  0  0  0  0  0  0  0  0  0  0
    9.8187   -2.0895   25.5800 C   0  0  0  0  0  0  0  0  0  0  0  0
    5.6473   -8.7216   15.3158 C   0  0  0  0  0  0  0  0  0  0  0  0
   10.7581   -3.1233   19.4720 N   0  0  0  0  0  0  0  0  0  0  0  0
    9.9571   -4.0573   16.8866 C   0  0  0  0  0  0  0  0  0  0  0  0
    7.6213   -6.5618   16.0087 C   0  0  0  0  0  0  0  0  0  0  0  0
   10.8583   -2.6527   20.7222 C   0  0  0  0  0  0  0  0  0  0  0  0
   10.6412   -3.5089   21.7936 C   0  0  0  0  0  0  0  0  0  0  0  0
   10.4972   -3.8968   24.1589 C   0  0  0  0  0  0  0  0  0  0  0  0
    5.9260   -8.2736   16.5517 C   0  0  0  0  0  0  0  0  0  0  0  0
    3.8816   -9.1166   17.2493 C   0  0  0  0  0  0  0  0  0  0  0  0
   10.1297   -1.6575   23.2324 C   0  0  0  0  0  0  0  0  0  0  0  0
    9.4684   -1.6929   26.7263 F   0  0  0  0  0  0  0  0  0  0  0  0
    7.7963   -7.7906   17.9837 C   0  0  0  0  0  0  0  0  0  0  0  0
   10.5884   -3.0725   16.7902 O   0  0  0  0  0  0  0  0  0  0  0  0
   10.4323   -5.3494   20.3516 C   0  0  0  0  0  0  0  0  0  0  0  0
    7.1156   -7.5454   16.8218 C   0  0  0  0  0  0  0  0  0  0  0  0
   10.3885   -4.4388   19.2773 C   0  0  0  0  0  0  0  0  0  0  0  0
    4.5160   -9.3822   15.0841 C   0  0  0  0  0  0  0  0  0  0  0  0
  1  3  4  0
  1 24  4  0
  2  6  4  0
  2 15  4  0
  3  5  4  0
  3  6  4  0
  4 21  4  0
  4 29  4  0
  5 15  4  0
  5 28  1  0
  6 16  4  0
  7 18  4  0
  7 26  4  0
  8 18  1  0
  8 19  4  0
  8 22  4  0
  9 12  4  0
  9 19  4  0
 10 12  4  0
 10 22  4  0
 11 20  4  0
 11 21  4  0
 12 23  1  0
 13 20  4  0
 13 29  4  0
 14 17  4  0
 14 28  4  0
 15 25  2  0
 16 27  4  0
 17 18  4  0
 20 27  1  0
 24 27  4  0
 26 28  4  0
M  END
$$$$

 Created by Python create_sdf_string function

 29 33  0  0  0  0  0  0  0  0999 V2000
    8.8270   -7.0288   18.4251 C   0  0  0  0  0  0  0  0  0  0  0  0
    9.1576   -4.6236   15.8860 O   0  0  0  0  0  0  0  0  0  0  0  0
    9.1509   -5.9108   17.7177 C   0  0  0  0  0  0  0  0  0  0  0  0
    3.6373   -9.5349   16.0582 N   0  0  0  0  0  0  0  0  0  0  0  0
    9.9275   -4.8001   18.0438 N   0  0  0  0  0  0  0  0  0  0  0  0
    8.5908   -5.7425   16.4412 C   0  0  0  0  0  0  0  0  0  0  0  0
   10.5993   -4.8981   21.6068 C   0  0  0  0  0  0  0  0  0  0  0  0
   10.4258   -3.0106   23.0998 C   0  0  0  0  0  0  0  0  0  0  0  0
   10.2148   -3.4364   25.4200 C   0  0  0  0  0  0  0  0  0  0  0  0
    9.7853   -1.1840   24.4927 C   0  0  0  0  0  0  0  0  0  0  0  0
    5.0276   -8.5227   17.5352 C   0  0  0  0  0  0  0  0  0  0  0  0
    9.8187   -2.0895   25.5800 C   0  0  0  0  0  0  0  0  0  0  0  0
    5.6473   -8.7216   15.3158 C   0  0  0  0  0  0  0  0  0  0  0  0
   10.7581   -3.1233   19.4720 N   0  0  0  0  0  0  0  0  0  0  0  0
    9.9571   -4.0573   16.8866 C   0  0  0  0  0  0  0  0  0  0  0  0
    7.6213   -6.5618   16.0087 C   0  0  0  0  0  0  0  0  0  0  0  0
   10.8583   -2.6527   20.7222 C   0  0  0  0  0  0  0  0  0  0  0  0
   10.6412   -3.5089   21.7936 C   0  0  0  0  0  0  0  0  0  0  0  0
   10.4972   -3.8968   24.1589 C   0  0  0  0  0  0  0  0  0  0  0  0
    5.9260   -8.2736   16.5517 C   0  0  0  0  0  0  0  0  0  0  0  0
    3.8816   -9.1166   17.2493 C   0  0  0  0  0  0  0  0  0  0  0  0
   10.1297   -1.6575   23.2324 C   0  0  0  0  0  0  0  0  0  0  0  0
    9.4684   -1.6929   26.7263 F   0  0  0  0  0  0  0  0  0  0  0  0
    7.7963   -7.7906   17.9837 C   0  0  0  0  0  0  0  0  0  0  0  0
   10.5884   -3.0725   16.7902 O   0  0  0  0  0  0  0  0  0  0  0  0
   10.4323   -5.3494   20.3516 C   0  0  0  0  0  0  0  0  0  0  0  0
    7.1156   -7.5454   16.8218 C   0  0  0  0  0  0  0  0  0  0  0  0
   10.3885   -4.4388   19.2773 C   0  0  0  0  0  0  0  0  0  0  0  0
    4.5160   -9.3822   15.0841 C   0  0  0  0  0  0  0  0  0  0  0  0
  1  3  4  0
  1 24  4  0
  2  6  4  0
  2 15  4  0
  3  5  4  0
  3  6  4  0
  4 21  4  0
  4 29  4  0
  5 15  4  0
  5 28  1  0
  6 16  4  0
  7 18  4  0
  7 26  4  0
  8 18  1  0
  8 19  4  0
  8 22  4  0
  9 12  4  0
  9 19  4  0
 10 12  4  0
 10 22  4  0
 11 20  4  0
 11 21  4  0
 12 23  1  0
 13 20  4  0
 13 29  4  0
 14 17  4  0
 14 28  4  0
 15 25  2  0
 16 27  4  0
 17 18  4  0
 20 27  1  0
 24 27  4  0
 26 28  4  0
M  END
$$$$

 Created by Python create_sdf_string function

 29 33  0  0  0  0  0  0  0  0999 V2000
    8.8270   -7.0288   18.4251 C   0  0  0  0  0  0  0  0  0  0  0  0
    9.1576   -4.6236   15.8860 O   0  0  0  0  0  0  0  0  0  0  0  0
    9.1509   -5.9108   17.7177 C   0  0  0  0  0  0  0  0  0  0  0  0
    3.6373   -9.5349   16.0582 N   0  0  0  0  0  0  0  0  0  0  0  0
    9.9275   -4.8001   18.0438 N   0  0  0  0  0  0  0  0  0  0  0  0
    8.5908   -5.7425   16.4412 C   0  0  0  0  0  0  0  0  0  0  0  0
   10.5993   -4.8981   21.6068 C   0  0  0  0  0  0  0  0  0  0  0  0
   10.4258   -3.0106   23.0998 C   0  0  0  0  0  0  0  0  0  0  0  0
   10.2148   -3.4364   25.4200 C   0  0  0  0  0  0  0  0  0  0  0  0
    9.7853   -1.1840   24.4927 C   0  0  0  0  0  0  0  0  0  0  0  0
    5.0276   -8.5227   17.5352 C   0  0  0  0  0  0  0  0  0  0  0  0
    9.8187   -2.0895   25.5800 C   0  0  0  0  0  0  0  0  0  0  0  0
    5.6473   -8.7216   15.3158 C   0  0  0  0  0  0  0  0  0  0  0  0
   10.7581   -3.1233   19.4720 N   0  0  0  0  0  0  0  0  0  0  0  0
    9.9571   -4.0573   16.8866 C   0  0  0  0  0  0  0  0  0  0  0  0
    7.6213   -6.5618   16.0087 C   0  0  0  0  0  0  0  0  0  0  0  0
   10.8583   -2.6527   20.7222 C   0  0  0  0  0  0  0  0  0  0  0  0
   10.6412   -3.5089   21.7936 C   0  0  0  0  0  0  0  0  0  0  0  0
   10.4972   -3.8968   24.1589 C   0  0  0  0  0  0  0  0  0  0  0  0
    5.9260   -8.2736   16.5517 C   0  0  0  0  0  0  0  0  0  0  0  0
    3.8816   -9.1166   17.2493 C   0  0  0  0  0  0  0  0  0  0  0  0
   10.1297   -1.6575   23.2324 C   0  0  0  0  0  0  0  0  0  0  0  0
    9.4684   -1.6929   26.7263 F   0  0  0  0  0  0  0  0  0  0  0  0
    7.7963   -7.7906   17.9837 C   0  0  0  0  0  0  0  0  0  0  0  0
   10.5884   -3.0725   16.7902 O   0  0  0  0  0  0  0  0  0  0  0  0
   10.4323   -5.3494   20.3516 C   0  0  0  0  0  0  0  0  0  0  0  0
    7.1156   -7.5454   16.8218 C   0  0  0  0  0  0  0  0  0  0  0  0
   10.3885   -4.4388   19.2773 C   0  0  0  0  0  0  0  0  0  0  0  0
    4.5160   -9.3822   15.0841 C   0  0  0  0  0  0  0  0  0  0  0  0
  1  3  4  0
  1 24  4  0
  2  6  4  0
  2 15  4  0
  3  5  4  0
  3  6  4  0
  4 21  4  0
  4 29  4  0
  5 15  4  0
  5 28  1  0
  6 16  4  0
  7 18  4  0
  7 26  4  0
  8 18  1  0
  8 19  4  0
  8 22  4  0
  9 12  4  0
  9 19  4  0
 10 12  4  0
 10 22  4  0
 11 20  4  0
 11 21  4  0
 12 23  1  0
 13 20  4  0
 13 29  4  0
 14 17  4  0
 14 28  4  0
 15 25  2  0
 16 27  4  0
 17 18  4  0
 20 27  1  0
 24 27  4  0
 26 28  4  0
M  END
$$$$

 Created by Python create_sdf_string function

 29 33  0  0  0  0  0  0  0  0999 V2000
    8.8270   -7.0288   18.4251 C   0  0  0  0  0  0  0  0  0  0  0  0
    9.1576   -4.6236   15.8860 O   0  0  0  0  0  0  0  0  0  0  0  0
    9.1509   -5.9108   17.7177 C   0  0  0  0  0  0  0  0  0  0  0  0
    3.6373   -9.5349   16.0582 N   0  0  0  0  0  0  0  0  0  0  0  0
    9.9275   -4.8001   18.0438 N   0  0  0  0  0  0  0  0  0  0  0  0
    8.5908   -5.7425   16.4412 C   0  0  0  0  0  0  0  0  0  0  0  0
   10.5993   -4.8981   21.6068 C   0  0  0  0  0  0  0  0  0  0  0  0
   10.4258   -3.0106   23.0998 C   0  0  0  0  0  0  0  0  0  0  0  0
   10.2148   -3.4364   25.4200 C   0  0  0  0  0  0  0  0  0  0  0  0
    9.7853   -1.1840   24.4927 C   0  0  0  0  0  0  0  0  0  0  0  0
    5.0276   -8.5227   17.5352 C   0  0  0  0  0  0  0  0  0  0  0  0
    9.8187   -2.0895   25.5800 C   0  0  0  0  0  0  0  0  0  0  0  0
    5.6473   -8.7216   15.3158 C   0  0  0  0  0  0  0  0  0  0  0  0
   10.7581   -3.1233   19.4720 N   0  0  0  0  0  0  0  0  0  0  0  0
    9.9571   -4.0573   16.8866 C   0  0  0  0  0  0  0  0  0  0  0  0
    7.6213   -6.5618   16.0087 C   0  0  0  0  0  0  0  0  0  0  0  0
   10.8583   -2.6527   20.7222 C   0  0  0  0  0  0  0  0  0  0  0  0
   10.6412   -3.5089   21.7936 C   0  0  0  0  0  0  0  0  0  0  0  0
   10.4972   -3.8968   24.1589 C   0  0  0  0  0  0  0  0  0  0  0  0
    5.9260   -8.2736   16.5517 C   0  0  0  0  0  0  0  0  0  0  0  0
    3.8816   -9.1166   17.2493 C   0  0  0  0  0  0  0  0  0  0  0  0
   10.1297   -1.6575   23.2324 C   0  0  0  0  0  0  0  0  0  0  0  0
    9.4684   -1.6929   26.7263 F   0  0  0  0  0  0  0  0  0  0  0  0
    7.7963   -7.7906   17.9837 C   0  0  0  0  0  0  0  0  0  0  0  0
   10.5884   -3.0725   16.7902 O   0  0  0  0  0  0  0  0  0  0  0  0
   10.4323   -5.3494   20.3516 C   0  0  0  0  0  0  0  0  0  0  0  0
    7.1156   -7.5454   16.8218 C   0  0  0  0  0  0  0  0  0  0  0  0
   10.3885   -4.4388   19.2773 C   0  0  0  0  0  0  0  0  0  0  0  0
    4.5160   -9.3822   15.0841 C   0  0  0  0  0  0  0  0  0  0  0  0
  1  3  4  0
  1 24  4  0
  2  6  4  0
  2 15  4  0
  3  5  4  0
  3  6  4  0
  4 21  4  0
  4 29  4  0
  5 15  4  0
  5 28  1  0
  6 16  4  0
  7 18  4  0
  7 26  4  0
  8 18  1  0
  8 19  4  0
  8 22  4  0
  9 12  4  0
  9 19  4  0
 10 12  4  0
 10 22  4  0
 11 20  4  0
 11 21  4  0
 12 23  1  0
 13 20  4  0
 13 29  4  0
 14 17  4  0
 14 28  4  0
 15 25  2  0
 16 27  4  0
 17 18  4  0
 20 27  1  0
 24 27  4  0
 26 28  4  0
M  END
$$$$

 Created by Python create_sdf_string function

 29 33  0  0  0  0  0  0  0  0999 V2000
    8.8270   -7.0288   18.4251 C   0  0  0  0  0  0  0  0  0  0  0  0
    9.1576   -4.6236   15.8860 O   0  0  0  0  0  0  0  0  0  0  0  0
    9.1509   -5.9108   17.7177 C   0  0  0  0  0  0  0  0  0  0  0  0
    3.6373   -9.5349   16.0582 N   0  0  0  0  0  0  0  0  0  0  0  0
    9.9275   -4.8001   18.0438 N   0  0  0  0  0  0  0  0  0  0  0  0
    8.5908   -5.7425   16.4412 C   0  0  0  0  0  0  0  0  0  0  0  0
   10.5993   -4.8981   21.6068 C   0  0  0  0  0  0  0  0  0  0  0  0
   10.4258   -3.0106   23.0998 C   0  0  0  0  0  0  0  0  0  0  0  0
   10.2148   -3.4364   25.4200 C   0  0  0  0  0  0  0  0  0  0  0  0
    9.7853   -1.1840   24.4927 C   0  0  0  0  0  0  0  0  0  0  0  0
    5.0276   -8.5227   17.5352 C   0  0  0  0  0  0  0  0  0  0  0  0
    9.8187   -2.0895   25.5800 C   0  0  0  0  0  0  0  0  0  0  0  0
    5.6473   -8.7216   15.3158 C   0  0  0  0  0  0  0  0  0  0  0  0
   10.7581   -3.1233   19.4720 N   0  0  0  0  0  0  0  0  0  0  0  0
    9.9571   -4.0573   16.8866 C   0  0  0  0  0  0  0  0  0  0  0  0
    7.6213   -6.5618   16.0087 C   0  0  0  0  0  0  0  0  0  0  0  0
   10.8583   -2.6527   20.7222 C   0  0  0  0  0  0  0  0  0  0  0  0
   10.6412   -3.5089   21.7936 C   0  0  0  0  0  0  0  0  0  0  0  0
   10.4972   -3.8968   24.1589 C   0  0  0  0  0  0  0  0  0  0  0  0
    5.9260   -8.2736   16.5517 C   0  0  0  0  0  0  0  0  0  0  0  0
    3.8816   -9.1166   17.2493 C   0  0  0  0  0  0  0  0  0  0  0  0
   10.1297   -1.6575   23.2324 C   0  0  0  0  0  0  0  0  0  0  0  0
    9.4684   -1.6929   26.7263 F   0  0  0  0  0  0  0  0  0  0  0  0
    7.7963   -7.7906   17.9837 C   0  0  0  0  0  0  0  0  0  0  0  0
   10.5884   -3.0725   16.7902 O   0  0  0  0  0  0  0  0  0  0  0  0
   10.4323   -5.3494   20.3516 C   0  0  0  0  0  0  0  0  0  0  0  0
    7.1156   -7.5454   16.8218 C   0  0  0  0  0  0  0  0  0  0  0  0
   10.3885   -4.4388   19.2773 C   0  0  0  0  0  0  0  0  0  0  0  0
    4.5160   -9.3822   15.0841 C   0  0  0  0  0  0  0  0  0  0  0  0
  1  3  4  0
  1 24  4  0
  2  6  4  0
  2 15  4  0
  3  5  4  0
  3  6  4  0
  4 21  4  0
  4 29  4  0
  5 15  4  0
  5 28  1  0
  6 16  4  0
  7 18  4  0
  7 26  4  0
  8 18  1  0
  8 19  4  0
  8 22  4  0
  9 12  4  0
  9 19  4  0
 10 12  4  0
 10 22  4  0
 11 20  4  0
 11 21  4  0
 12 23  1  0
 13 20  4  0
 13 29  4  0
 14 17  4  0
 14 28  4  0
 15 25  2  0
 16 27  4  0
 17 18  4  0
 20 27  1  0
 24 27  4  0
 26 28  4  0
M  END
$$$$

 Created by Python create_sdf_string function

 29 33  0  0  0  0  0  0  0  0999 V2000
    8.8270   -7.0288   18.4251 C   0  0  0  0  0  0  0  0  0  0  0  0
    9.1576   -4.6236   15.8860 O   0  0  0  0  0  0  0  0  0  0  0  0
    9.1509   -5.9108   17.7177 C   0  0  0  0  0  0  0  0  0  0  0  0
    3.6373   -9.5349   16.0582 N   0  0  0  0  0  0  0  0  0  0  0  0
    9.9275   -4.8001   18.0438 N   0  0  0  0  0  0  0  0  0  0  0  0
    8.5908   -5.7425   16.4412 C   0  0  0  0  0  0  0  0  0  0  0  0
   10.5993   -4.8981   21.6068 C   0  0  0  0  0  0  0  0  0  0  0  0
   10.4258   -3.0106   23.0998 C   0  0  0  0  0  0  0  0  0  0  0  0
   10.2148   -3.4364   25.4200 C   0  0  0  0  0  0  0  0  0  0  0  0
    9.7853   -1.1840   24.4927 C   0  0  0  0  0  0  0  0  0  0  0  0
    5.0276   -8.5227   17.5352 C   0  0  0  0  0  0  0  0  0  0  0  0
    9.8187   -2.0895   25.5800 C   0  0  0  0  0  0  0  0  0  0  0  0
    5.6473   -8.7216   15.3158 C   0  0  0  0  0  0  0  0  0  0  0  0
   10.7581   -3.1233   19.4720 N   0  0  0  0  0  0  0  0  0  0  0  0
    9.9571   -4.0573   16.8866 C   0  0  0  0  0  0  0  0  0  0  0  0
    7.6213   -6.5618   16.0087 C   0  0  0  0  0  0  0  0  0  0  0  0
   10.8583   -2.6527   20.7222 C   0  0  0  0  0  0  0  0  0  0  0  0
   10.6412   -3.5089   21.7936 C   0  0  0  0  0  0  0  0  0  0  0  0
   10.4972   -3.8968   24.1589 C   0  0  0  0  0  0  0  0  0  0  0  0
    5.9260   -8.2736   16.5517 C   0  0  0  0  0  0  0  0  0  0  0  0
    3.8816   -9.1166   17.2493 C   0  0  0  0  0  0  0  0  0  0  0  0
   10.1297   -1.6575   23.2324 C   0  0  0  0  0  0  0  0  0  0  0  0
    9.4684   -1.6929   26.7263 F   0  0  0  0  0  0  0  0  0  0  0  0
    7.7963   -7.7906   17.9837 C   0  0  0  0  0  0  0  0  0  0  0  0
   10.5884   -3.0725   16.7902 O   0  0  0  0  0  0  0  0  0  0  0  0
   10.4323   -5.3494   20.3516 C   0  0  0  0  0  0  0  0  0  0  0  0
    7.1156   -7.5454   16.8218 C   0  0  0  0  0  0  0  0  0  0  0  0
   10.3885   -4.4388   19.2773 C   0  0  0  0  0  0  0  0  0  0  0  0
    4.5160   -9.3822   15.0841 C   0  0  0  0  0  0  0  0  0  0  0  0
  1  3  4  0
  1 24  4  0
  2  6  4  0
  2 15  4  0
  3  5  4  0
  3  6  4  0
  4 21  4  0
  4 29  4  0
  5 15  4  0
  5 28  1  0
  6 16  4  0
  7 18  4  0
  7 26  4  0
  8 18  1  0
  8 19  4  0
  8 22  4  0
  9 12  4  0
  9 19  4  0
 10 12  4  0
 10 22  4  0
 11 20  4  0
 11 21  4  0
 12 23  1  0
 13 20  4  0
 13 29  4  0
 14 17  4  0
 14 28  4  0
 15 25  2  0
 16 27  4  0
 17 18  4  0
 20 27  1  0
 24 27  4  0
 26 28  4  0
M  END
$$$$

 Created by Python create_sdf_string function

 29 33  0  0  0  0  0  0  0  0999 V2000
    8.8270   -7.0288   18.4251 C   0  0  0  0  0  0  0  0  0  0  0  0
    9.1576   -4.6236   15.8860 O   0  0  0  0  0  0  0  0  0  0  0  0
    9.1509   -5.9108   17.7177 C   0  0  0  0  0  0  0  0  0  0  0  0
    3.6373   -9.5349   16.0582 N   0  0  0  0  0  0  0  0  0  0  0  0
    9.9275   -4.8001   18.0438 N   0  0  0  0  0  0  0  0  0  0  0  0
    8.5908   -5.7425   16.4412 C   0  0  0  0  0  0  0  0  0  0  0  0
   10.5993   -4.8981   21.6068 C   0  0  0  0  0  0  0  0  0  0  0  0
   10.4258   -3.0106   23.0998 C   0  0  0  0  0  0  0  0  0  0  0  0
   10.2148   -3.4364   25.4200 C   0  0  0  0  0  0  0  0  0  0  0  0
    9.7853   -1.1840   24.4927 C   0  0  0  0  0  0  0  0  0  0  0  0
    5.0276   -8.5227   17.5352 C   0  0  0  0  0  0  0  0  0  0  0  0
    9.8187   -2.0895   25.5800 C   0  0  0  0  0  0  0  0  0  0  0  0
    5.6473   -8.7216   15.3158 C   0  0  0  0  0  0  0  0  0  0  0  0
   10.7581   -3.1233   19.4720 N   0  0  0  0  0  0  0  0  0  0  0  0
    9.9571   -4.0573   16.8866 C   0  0  0  0  0  0  0  0  0  0  0  0
    7.6213   -6.5618   16.0087 C   0  0  0  0  0  0  0  0  0  0  0  0
   10.8583   -2.6527   20.7222 C   0  0  0  0  0  0  0  0  0  0  0  0
   10.6412   -3.5089   21.7936 C   0  0  0  0  0  0  0  0  0  0  0  0
   10.4972   -3.8968   24.1589 C   0  0  0  0  0  0  0  0  0  0  0  0
    5.9260   -8.2736   16.5517 C   0  0  0  0  0  0  0  0  0  0  0  0
    3.8816   -9.1166   17.2493 C   0  0  0  0  0  0  0  0  0  0  0  0
   10.1297   -1.6575   23.2324 C   0  0  0  0  0  0  0  0  0  0  0  0
    9.4684   -1.6929   26.7263 F   0  0  0  0  0  0  0  0  0  0  0  0
    7.7963   -7.7906   17.9837 C   0  0  0  0  0  0  0  0  0  0  0  0
   10.5884   -3.0725   16.7902 O   0  0  0  0  0  0  0  0  0  0  0  0
   10.4323   -5.3494   20.3516 C   0  0  0  0  0  0  0  0  0  0  0  0
    7.1156   -7.5454   16.8218 C   0  0  0  0  0  0  0  0  0  0  0  0
   10.3885   -4.4388   19.2773 C   0  0  0  0  0  0  0  0  0  0  0  0
    4.5160   -9.3822   15.0841 C   0  0  0  0  0  0  0  0  0  0  0  0
  1  3  4  0
  1 24  4  0
  2  6  4  0
  2 15  4  0
  3  5  4  0
  3  6  4  0
  4 21  4  0
  4 29  4  0
  5 15  4  0
  5 28  1  0
  6 16  4  0
  7 18  4  0
  7 26  4  0
  8 18  1  0
  8 19  4  0
  8 22  4  0
  9 12  4  0
  9 19  4  0
 10 12  4  0
 10 22  4  0
 11 20  4  0
 11 21  4  0
 12 23  1  0
 13 20  4  0
 13 29  4  0
 14 17  4  0
 14 28  4  0
 15 25  2  0
 16 27  4  0
 17 18  4  0
 20 27  1  0
 24 27  4  0
 26 28  4  0
M  END
$$$$

 Created by Python create_sdf_string function

 29 33  0  0  0  0  0  0  0  0999 V2000
    8.8270   -7.0288   18.4251 C   0  0  0  0  0  0  0  0  0  0  0  0
    9.1576   -4.6236   15.8860 O   0  0  0  0  0  0  0  0  0  0  0  0
    9.1509   -5.9108   17.7177 C   0  0  0  0  0  0  0  0  0  0  0  0
    3.6373   -9.5349   16.0582 N   0  0  0  0  0  0  0  0  0  0  0  0
    9.9275   -4.8001   18.0438 N   0  0  0  0  0  0  0  0  0  0  0  0
    8.5908   -5.7425   16.4412 C   0  0  0  0  0  0  0  0  0  0  0  0
   10.5993   -4.8981   21.6068 C   0  0  0  0  0  0  0  0  0  0  0  0
   10.4258   -3.0106   23.0998 C   0  0  0  0  0  0  0  0  0  0  0  0
   10.2148   -3.4364   25.4200 C   0  0  0  0  0  0  0  0  0  0  0  0
    9.7853   -1.1840   24.4927 C   0  0  0  0  0  0  0  0  0  0  0  0
    5.0276   -8.5227   17.5352 C   0  0  0  0  0  0  0  0  0  0  0  0
    9.8187   -2.0895   25.5800 C   0  0  0  0  0  0  0  0  0  0  0  0
    5.6473   -8.7216   15.3158 C   0  0  0  0  0  0  0  0  0  0  0  0
   10.7581   -3.1233   19.4720 N   0  0  0  0  0  0  0  0  0  0  0  0
    9.9571   -4.0573   16.8866 C   0  0  0  0  0  0  0  0  0  0  0  0
    7.6213   -6.5618   16.0087 C   0  0  0  0  0  0  0  0  0  0  0  0
   10.8583   -2.6527   20.7222 C   0  0  0  0  0  0  0  0  0  0  0  0
   10.6412   -3.5089   21.7936 C   0  0  0  0  0  0  0  0  0  0  0  0
   10.4972   -3.8968   24.1589 C   0  0  0  0  0  0  0  0  0  0  0  0
    5.9260   -8.2736   16.5517 C   0  0  0  0  0  0  0  0  0  0  0  0
    3.8816   -9.1166   17.2493 C   0  0  0  0  0  0  0  0  0  0  0  0
   10.1297   -1.6575   23.2324 C   0  0  0  0  0  0  0  0  0  0  0  0
    9.4684   -1.6929   26.7263 F   0  0  0  0  0  0  0  0  0  0  0  0
    7.7963   -7.7906   17.9837 C   0  0  0  0  0  0  0  0  0  0  0  0
   10.5884   -3.0725   16.7902 O   0  0  0  0  0  0  0  0  0  0  0  0
   10.4323   -5.3494   20.3516 C   0  0  0  0  0  0  0  0  0  0  0  0
    7.1156   -7.5454   16.8218 C   0  0  0  0  0  0  0  0  0  0  0  0
   10.3885   -4.4388   19.2773 C   0  0  0  0  0  0  0  0  0  0  0  0
    4.5160   -9.3822   15.0841 C   0  0  0  0  0  0  0  0  0  0  0  0
  1  3  4  0
  1 24  4  0
  2  6  4  0
  2 15  4  0
  3  5  4  0
  3  6  4  0
  4 21  4  0
  4 29  4  0
  5 15  4  0
  5 28  1  0
  6 16  4  0
  7 18  4  0
  7 26  4  0
  8 18  1  0
  8 19  4  0
  8 22  4  0
  9 12  4  0
  9 19  4  0
 10 12  4  0
 10 22  4  0
 11 20  4  0
 11 21  4  0
 12 23  1  0
 13 20  4  0
 13 29  4  0
 14 17  4  0
 14 28  4  0
 15 25  2  0
 16 27  4  0
 17 18  4  0
 20 27  1  0
 24 27  4  0
 26 28  4  0
M  END
$$$$

 Created by Python create_sdf_string function

 29 33  0  0  0  0  0  0  0  0999 V2000
    8.8270   -7.0288   18.4251 C   0  0  0  0  0  0  0  0  0  0  0  0
    9.1576   -4.6236   15.8860 O   0  0  0  0  0  0  0  0  0  0  0  0
    9.1509   -5.9108   17.7177 C   0  0  0  0  0  0  0  0  0  0  0  0
    3.6373   -9.5349   16.0582 N   0  0  0  0  0  0  0  0  0  0  0  0
    9.9275   -4.8001   18.0438 N   0  0  0  0  0  0  0  0  0  0  0  0
    8.5908   -5.7425   16.4412 C   0  0  0  0  0  0  0  0  0  0  0  0
   10.5993   -4.8981   21.6068 C   0  0  0  0  0  0  0  0  0  0  0  0
   10.4258   -3.0106   23.0998 C   0  0  0  0  0  0  0  0  0  0  0  0
   10.2148   -3.4364   25.4200 C   0  0  0  0  0  0  0  0  0  0  0  0
    9.7853   -1.1840   24.4927 C   0  0  0  0  0  0  0  0  0  0  0  0
    5.0276   -8.5227   17.5352 C   0  0  0  0  0  0  0  0  0  0  0  0
    9.8187   -2.0895   25.5800 C   0  0  0  0  0  0  0  0  0  0  0  0
    5.6473   -8.7216   15.3158 C   0  0  0  0  0  0  0  0  0  0  0  0
   10.7581   -3.1233   19.4720 N   0  0  0  0  0  0  0  0  0  0  0  0
    9.9571   -4.0573   16.8866 C   0  0  0  0  0  0  0  0  0  0  0  0
    7.6213   -6.5618   16.0087 C   0  0  0  0  0  0  0  0  0  0  0  0
   10.8583   -2.6527   20.7222 C   0  0  0  0  0  0  0  0  0  0  0  0
   10.6412   -3.5089   21.7936 C   0  0  0  0  0  0  0  0  0  0  0  0
   10.4972   -3.8968   24.1589 C   0  0  0  0  0  0  0  0  0  0  0  0
    5.9260   -8.2736   16.5517 C   0  0  0  0  0  0  0  0  0  0  0  0
    3.8816   -9.1166   17.2493 C   0  0  0  0  0  0  0  0  0  0  0  0
   10.1297   -1.6575   23.2324 C   0  0  0  0  0  0  0  0  0  0  0  0
    9.4684   -1.6929   26.7263 F   0  0  0  0  0  0  0  0  0  0  0  0
    7.7963   -7.7906   17.9837 C   0  0  0  0  0  0  0  0  0  0  0  0
   10.5884   -3.0725   16.7902 O   0  0  0  0  0  0  0  0  0  0  0  0
   10.4323   -5.3494   20.3516 C   0  0  0  0  0  0  0  0  0  0  0  0
    7.1156   -7.5454   16.8218 C   0  0  0  0  0  0  0  0  0  0  0  0
   10.3885   -4.4388   19.2773 C   0  0  0  0  0  0  0  0  0  0  0  0
    4.5160   -9.3822   15.0841 C   0  0  0  0  0  0  0  0  0  0  0  0
  1  3  4  0
  1 24  4  0
  2  6  4  0
  2 15  4  0
  3  5  4  0
  3  6  4  0
  4 21  4  0
  4 29  4  0
  5 15  4  0
  5 28  1  0
  6 16  4  0
  7 18  4  0
  7 26  4  0
  8 18  1  0
  8 19  4  0
  8 22  4  0
  9 12  4  0
  9 19  4  0
 10 12  4  0
 10 22  4  0
 11 20  4  0
 11 21  4  0
 12 23  1  0
 13 20  4  0
 13 29  4  0
 14 17  4  0
 14 28  4  0
 15 25  2  0
 16 27  4  0
 17 18  4  0
 20 27  1  0
 24 27  4  0
 26 28  4  0
M  END
$$$$

 Created by Python create_sdf_string function

 29 33  0  0  0  0  0  0  0  0999 V2000
    8.8270   -7.0288   18.4251 C   0  0  0  0  0  0  0  0  0  0  0  0
    9.1576   -4.6236   15.8860 O   0  0  0  0  0  0  0  0  0  0  0  0
    9.1509   -5.9108   17.7177 C   0  0  0  0  0  0  0  0  0  0  0  0
    3.6373   -9.5349   16.0582 N   0  0  0  0  0  0  0  0  0  0  0  0
    9.9275   -4.8001   18.0438 N   0  0  0  0  0  0  0  0  0  0  0  0
    8.5908   -5.7425   16.4412 C   0  0  0  0  0  0  0  0  0  0  0  0
   10.5993   -4.8981   21.6068 C   0  0  0  0  0  0  0  0  0  0  0  0
   10.4258   -3.0106   23.0998 C   0  0  0  0  0  0  0  0  0  0  0  0
   10.2148   -3.4364   25.4200 C   0  0  0  0  0  0  0  0  0  0  0  0
    9.7853   -1.1840   24.4927 C   0  0  0  0  0  0  0  0  0  0  0  0
    5.0276   -8.5227   17.5352 C   0  0  0  0  0  0  0  0  0  0  0  0
    9.8187   -2.0895   25.5800 C   0  0  0  0  0  0  0  0  0  0  0  0
    5.6473   -8.7216   15.3158 C   0  0  0  0  0  0  0  0  0  0  0  0
   10.7581   -3.1233   19.4720 N   0  0  0  0  0  0  0  0  0  0  0  0
    9.9571   -4.0573   16.8866 C   0  0  0  0  0  0  0  0  0  0  0  0
    7.6213   -6.5618   16.0087 C   0  0  0  0  0  0  0  0  0  0  0  0
   10.8583   -2.6527   20.7222 C   0  0  0  0  0  0  0  0  0  0  0  0
   10.6412   -3.5089   21.7936 C   0  0  0  0  0  0  0  0  0  0  0  0
   10.4972   -3.8968   24.1589 C   0  0  0  0  0  0  0  0  0  0  0  0
    5.9260   -8.2736   16.5517 C   0  0  0  0  0  0  0  0  0  0  0  0
    3.8816   -9.1166   17.2493 C   0  0  0  0  0  0  0  0  0  0  0  0
   10.1297   -1.6575   23.2324 C   0  0  0  0  0  0  0  0  0  0  0  0
    9.4684   -1.6929   26.7263 F   0  0  0  0  0  0  0  0  0  0  0  0
    7.7963   -7.7906   17.9837 C   0  0  0  0  0  0  0  0  0  0  0  0
   10.5884   -3.0725   16.7902 O   0  0  0  0  0  0  0  0  0  0  0  0
   10.4323   -5.3494   20.3516 C   0  0  0  0  0  0  0  0  0  0  0  0
    7.1156   -7.5454   16.8218 C   0  0  0  0  0  0  0  0  0  0  0  0
   10.3885   -4.4388   19.2773 C   0  0  0  0  0  0  0  0  0  0  0  0
    4.5160   -9.3822   15.0841 C   0  0  0  0  0  0  0  0  0  0  0  0
  1  3  4  0
  1 24  4  0
  2  6  4  0
  2 15  4  0
  3  5  4  0
  3  6  4  0
  4 21  4  0
  4 29  4  0
  5 15  4  0
  5 28  1  0
  6 16  4  0
  7 18  4  0
  7 26  4  0
  8 18  1  0
  8 19  4  0
  8 22  4  0
  9 12  4  0
  9 19  4  0
 10 12  4  0
 10 22  4  0
 11 20  4  0
 11 21  4  0
 12 23  1  0
 13 20  4  0
 13 29  4  0
 14 17  4  0
 14 28  4  0
 15 25  2  0
 16 27  4  0
 17 18  4  0
 20 27  1  0
 24 27  4  0
 26 28  4  0
M  END
$$$$

 Created by Python create_sdf_string function

 29 33  0  0  0  0  0  0  0  0999 V2000
    8.8270   -7.0288   18.4251 C   0  0  0  0  0  0  0  0  0  0  0  0
    9.1576   -4.6236   15.8860 O   0  0  0  0  0  0  0  0  0  0  0  0
    9.1509   -5.9108   17.7177 C   0  0  0  0  0  0  0  0  0  0  0  0
    3.6373   -9.5349   16.0582 N   0  0  0  0  0  0  0  0  0  0  0  0
    9.9275   -4.8001   18.0438 N   0  0  0  0  0  0  0  0  0  0  0  0
    8.5908   -5.7425   16.4412 C   0  0  0  0  0  0  0  0  0  0  0  0
   10.5993   -4.8981   21.6068 C   0  0  0  0  0  0  0  0  0  0  0  0
   10.4258   -3.0106   23.0998 C   0  0  0  0  0  0  0  0  0  0  0  0
   10.2148   -3.4364   25.4200 C   0  0  0  0  0  0  0  0  0  0  0  0
    9.7853   -1.1840   24.4927 C   0  0  0  0  0  0  0  0  0  0  0  0
    5.0276   -8.5227   17.5352 C   0  0  0  0  0  0  0  0  0  0  0  0
    9.8187   -2.0895   25.5800 C   0  0  0  0  0  0  0  0  0  0  0  0
    5.6473   -8.7216   15.3158 C   0  0  0  0  0  0  0  0  0  0  0  0
   10.7581   -3.1233   19.4720 N   0  0  0  0  0  0  0  0  0  0  0  0
    9.9571   -4.0573   16.8866 C   0  0  0  0  0  0  0  0  0  0  0  0
    7.6213   -6.5618   16.0087 C   0  0  0  0  0  0  0  0  0  0  0  0
   10.8583   -2.6527   20.7222 C   0  0  0  0  0  0  0  0  0  0  0  0
   10.6412   -3.5089   21.7936 C   0  0  0  0  0  0  0  0  0  0  0  0
   10.4972   -3.8968   24.1589 C   0  0  0  0  0  0  0  0  0  0  0  0
    5.9260   -8.2736   16.5517 C   0  0  0  0  0  0  0  0  0  0  0  0
    3.8816   -9.1166   17.2493 C   0  0  0  0  0  0  0  0  0  0  0  0
   10.1297   -1.6575   23.2324 C   0  0  0  0  0  0  0  0  0  0  0  0
    9.4684   -1.6929   26.7263 F   0  0  0  0  0  0  0  0  0  0  0  0
    7.7963   -7.7906   17.9837 C   0  0  0  0  0  0  0  0  0  0  0  0
   10.5884   -3.0725   16.7902 O   0  0  0  0  0  0  0  0  0  0  0  0
   10.4323   -5.3494   20.3516 C   0  0  0  0  0  0  0  0  0  0  0  0
    7.1156   -7.5454   16.8218 C   0  0  0  0  0  0  0  0  0  0  0  0
   10.3885   -4.4388   19.2773 C   0  0  0  0  0  0  0  0  0  0  0  0
    4.5160   -9.3822   15.0841 C   0  0  0  0  0  0  0  0  0  0  0  0
  1  3  4  0
  1 24  4  0
  2  6  4  0
  2 15  4  0
  3  5  4  0
  3  6  4  0
  4 21  4  0
  4 29  4  0
  5 15  4  0
  5 28  1  0
  6 16  4  0
  7 18  4  0
  7 26  4  0
  8 18  1  0
  8 19  4  0
  8 22  4  0
  9 12  4  0
  9 19  4  0
 10 12  4  0
 10 22  4  0
 11 20  4  0
 11 21  4  0
 12 23  1  0
 13 20  4  0
 13 29  4  0
 14 17  4  0
 14 28  4  0
 15 25  2  0
 16 27  4  0
 17 18  4  0
 20 27  1  0
 24 27  4  0
 26 28  4  0
M  END
$$$$

 Created by Python create_sdf_string function

 29 33  0  0  0  0  0  0  0  0999 V2000
    8.8270   -7.0288   18.4251 C   0  0  0  0  0  0  0  0  0  0  0  0
    9.1576   -4.6236   15.8860 O   0  0  0  0  0  0  0  0  0  0  0  0
    9.1509   -5.9108   17.7177 C   0  0  0  0  0  0  0  0  0  0  0  0
    3.6373   -9.5349   16.0582 N   0  0  0  0  0  0  0  0  0  0  0  0
    9.9275   -4.8001   18.0438 N   0  0  0  0  0  0  0  0  0  0  0  0
    8.5908   -5.7425   16.4412 C   0  0  0  0  0  0  0  0  0  0  0  0
   10.5993   -4.8981   21.6068 C   0  0  0  0  0  0  0  0  0  0  0  0
   10.4258   -3.0106   23.0998 C   0  0  0  0  0  0  0  0  0  0  0  0
   10.2148   -3.4364   25.4200 C   0  0  0  0  0  0  0  0  0  0  0  0
    9.7853   -1.1840   24.4927 C   0  0  0  0  0  0  0  0  0  0  0  0
    5.0276   -8.5227   17.5352 C   0  0  0  0  0  0  0  0  0  0  0  0
    9.8187   -2.0895   25.5800 C   0  0  0  0  0  0  0  0  0  0  0  0
    5.6473   -8.7216   15.3158 C   0  0  0  0  0  0  0  0  0  0  0  0
   10.7581   -3.1233   19.4720 N   0  0  0  0  0  0  0  0  0  0  0  0
    9.9571   -4.0573   16.8866 C   0  0  0  0  0  0  0  0  0  0  0  0
    7.6213   -6.5618   16.0087 C   0  0  0  0  0  0  0  0  0  0  0  0
   10.8583   -2.6527   20.7222 C   0  0  0  0  0  0  0  0  0  0  0  0
   10.6412   -3.5089   21.7936 C   0  0  0  0  0  0  0  0  0  0  0  0
   10.4972   -3.8968   24.1589 C   0  0  0  0  0  0  0  0  0  0  0  0
    5.9260   -8.2736   16.5517 C   0  0  0  0  0  0  0  0  0  0  0  0
    3.8816   -9.1166   17.2493 C   0  0  0  0  0  0  0  0  0  0  0  0
   10.1297   -1.6575   23.2324 C   0  0  0  0  0  0  0  0  0  0  0  0
    9.4684   -1.6929   26.7263 F   0  0  0  0  0  0  0  0  0  0  0  0
    7.7963   -7.7906   17.9837 C   0  0  0  0  0  0  0  0  0  0  0  0
   10.5884   -3.0725   16.7902 O   0  0  0  0  0  0  0  0  0  0  0  0
   10.4323   -5.3494   20.3516 C   0  0  0  0  0  0  0  0  0  0  0  0
    7.1156   -7.5454   16.8218 C   0  0  0  0  0  0  0  0  0  0  0  0
   10.3885   -4.4388   19.2773 C   0  0  0  0  0  0  0  0  0  0  0  0
    4.5160   -9.3822   15.0841 C   0  0  0  0  0  0  0  0  0  0  0  0
  1  3  4  0
  1 24  4  0
  2  6  4  0
  2 15  4  0
  3  5  4  0
  3  6  4  0
  4 21  4  0
  4 29  4  0
  5 15  4  0
  5 28  1  0
  6 16  4  0
  7 18  4  0
  7 26  4  0
  8 18  1  0
  8 19  4  0
  8 22  4  0
  9 12  4  0
  9 19  4  0
 10 12  4  0
 10 22  4  0
 11 20  4  0
 11 21  4  0
 12 23  1  0
 13 20  4  0
 13 29  4  0
 14 17  4  0
 14 28  4  0
 15 25  2  0
 16 27  4  0
 17 18  4  0
 20 27  1  0
 24 27  4  0
 26 28  4  0
M  END
$$$$

 Created by Python create_sdf_string function

 29 33  0  0  0  0  0  0  0  0999 V2000
    8.8270   -7.0288   18.4251 C   0  0  0  0  0  0  0  0  0  0  0  0
    9.1576   -4.6236   15.8860 O   0  0  0  0  0  0  0  0  0  0  0  0
    9.1509   -5.9108   17.7177 C   0  0  0  0  0  0  0  0  0  0  0  0
    3.6373   -9.5349   16.0582 N   0  0  0  0  0  0  0  0  0  0  0  0
    9.9275   -4.8001   18.0438 N   0  0  0  0  0  0  0  0  0  0  0  0
    8.5908   -5.7425   16.4412 C   0  0  0  0  0  0  0  0  0  0  0  0
   10.5993   -4.8981   21.6068 C   0  0  0  0  0  0  0  0  0  0  0  0
   10.4258   -3.0106   23.0998 C   0  0  0  0  0  0  0  0  0  0  0  0
   10.2148   -3.4364   25.4200 C   0  0  0  0  0  0  0  0  0  0  0  0
    9.7853   -1.1840   24.4927 C   0  0  0  0  0  0  0  0  0  0  0  0
    5.0276   -8.5227   17.5352 C   0  0  0  0  0  0  0  0  0  0  0  0
    9.8187   -2.0895   25.5800 C   0  0  0  0  0  0  0  0  0  0  0  0
    5.6473   -8.7216   15.3158 C   0  0  0  0  0  0  0  0  0  0  0  0
   10.7581   -3.1233   19.4720 N   0  0  0  0  0  0  0  0  0  0  0  0
    9.9571   -4.0573   16.8866 C   0  0  0  0  0  0  0  0  0  0  0  0
    7.6213   -6.5618   16.0087 C   0  0  0  0  0  0  0  0  0  0  0  0
   10.8583   -2.6527   20.7222 C   0  0  0  0  0  0  0  0  0  0  0  0
   10.6412   -3.5089   21.7936 C   0  0  0  0  0  0  0  0  0  0  0  0
   10.4972   -3.8968   24.1589 C   0  0  0  0  0  0  0  0  0  0  0  0
    5.9260   -8.2736   16.5517 C   0  0  0  0  0  0  0  0  0  0  0  0
    3.8816   -9.1166   17.2493 C   0  0  0  0  0  0  0  0  0  0  0  0
   10.1297   -1.6575   23.2324 C   0  0  0  0  0  0  0  0  0  0  0  0
    9.4684   -1.6929   26.7263 F   0  0  0  0  0  0  0  0  0  0  0  0
    7.7963   -7.7906   17.9837 C   0  0  0  0  0  0  0  0  0  0  0  0
   10.5884   -3.0725   16.7902 O   0  0  0  0  0  0  0  0  0  0  0  0
   10.4323   -5.3494   20.3516 C   0  0  0  0  0  0  0  0  0  0  0  0
    7.1156   -7.5454   16.8218 C   0  0  0  0  0  0  0  0  0  0  0  0
   10.3885   -4.4388   19.2773 C   0  0  0  0  0  0  0  0  0  0  0  0
    4.5160   -9.3822   15.0841 C   0  0  0  0  0  0  0  0  0  0  0  0
  1  3  4  0
  1 24  4  0
  2  6  4  0
  2 15  4  0
  3  5  4  0
  3  6  4  0
  4 21  4  0
  4 29  4  0
  5 15  4  0
  5 28  1  0
  6 16  4  0
  7 18  4  0
  7 26  4  0
  8 18  1  0
  8 19  4  0
  8 22  4  0
  9 12  4  0
  9 19  4  0
 10 12  4  0
 10 22  4  0
 11 20  4  0
 11 21  4  0
 12 23  1  0
 13 20  4  0
 13 29  4  0
 14 17  4  0
 14 28  4  0
 15 25  2  0
 16 27  4  0
 17 18  4  0
 20 27  1  0
 24 27  4  0
 26 28  4  0
M  END
$$$$

 Created by Python create_sdf_string function

 29 33  0  0  0  0  0  0  0  0999 V2000
    8.8270   -7.0288   18.4251 C   0  0  0  0  0  0  0  0  0  0  0  0
    9.1576   -4.6236   15.8860 O   0  0  0  0  0  0  0  0  0  0  0  0
    9.1509   -5.9108   17.7177 C   0  0  0  0  0  0  0  0  0  0  0  0
    3.6373   -9.5349   16.0582 N   0  0  0  0  0  0  0  0  0  0  0  0
    9.9275   -4.8001   18.0438 N   0  0  0  0  0  0  0  0  0  0  0  0
    8.5908   -5.7425   16.4412 C   0  0  0  0  0  0  0  0  0  0  0  0
   10.5993   -4.8981   21.6068 C   0  0  0  0  0  0  0  0  0  0  0  0
   10.4258   -3.0106   23.0998 C   0  0  0  0  0  0  0  0  0  0  0  0
   10.2148   -3.4364   25.4200 C   0  0  0  0  0  0  0  0  0  0  0  0
    9.7853   -1.1840   24.4927 C   0  0  0  0  0  0  0  0  0  0  0  0
    5.0276   -8.5227   17.5352 C   0  0  0  0  0  0  0  0  0  0  0  0
    9.8187   -2.0895   25.5800 C   0  0  0  0  0  0  0  0  0  0  0  0
    5.6473   -8.7216   15.3158 C   0  0  0  0  0  0  0  0  0  0  0  0
   10.7581   -3.1233   19.4720 N   0  0  0  0  0  0  0  0  0  0  0  0
    9.9571   -4.0573   16.8866 C   0  0  0  0  0  0  0  0  0  0  0  0
    7.6213   -6.5618   16.0087 C   0  0  0  0  0  0  0  0  0  0  0  0
   10.8583   -2.6527   20.7222 C   0  0  0  0  0  0  0  0  0  0  0  0
   10.6412   -3.5089   21.7936 C   0  0  0  0  0  0  0  0  0  0  0  0
   10.4972   -3.8968   24.1589 C   0  0  0  0  0  0  0  0  0  0  0  0
    5.9260   -8.2736   16.5517 C   0  0  0  0  0  0  0  0  0  0  0  0
    3.8816   -9.1166   17.2493 C   0  0  0  0  0  0  0  0  0  0  0  0
   10.1297   -1.6575   23.2324 C   0  0  0  0  0  0  0  0  0  0  0  0
    9.4684   -1.6929   26.7263 F   0  0  0  0  0  0  0  0  0  0  0  0
    7.7963   -7.7906   17.9837 C   0  0  0  0  0  0  0  0  0  0  0  0
   10.5884   -3.0725   16.7902 O   0  0  0  0  0  0  0  0  0  0  0  0
   10.4323   -5.3494   20.3516 C   0  0  0  0  0  0  0  0  0  0  0  0
    7.1156   -7.5454   16.8218 C   0  0  0  0  0  0  0  0  0  0  0  0
   10.3885   -4.4388   19.2773 C   0  0  0  0  0  0  0  0  0  0  0  0
    4.5160   -9.3822   15.0841 C   0  0  0  0  0  0  0  0  0  0  0  0
  1  3  4  0
  1 24  4  0
  2  6  4  0
  2 15  4  0
  3  5  4  0
  3  6  4  0
  4 21  4  0
  4 29  4  0
  5 15  4  0
  5 28  1  0
  6 16  4  0
  7 18  4  0
  7 26  4  0
  8 18  1  0
  8 19  4  0
  8 22  4  0
  9 12  4  0
  9 19  4  0
 10 12  4  0
 10 22  4  0
 11 20  4  0
 11 21  4  0
 12 23  1  0
 13 20  4  0
 13 29  4  0
 14 17  4  0
 14 28  4  0
 15 25  2  0
 16 27  4  0
 17 18  4  0
 20 27  1  0
 24 27  4  0
 26 28  4  0
M  END
$$$$

 Created by Python create_sdf_string function

 29 33  0  0  0  0  0  0  0  0999 V2000
    8.8270   -7.0288   18.4251 C   0  0  0  0  0  0  0  0  0  0  0  0
    9.1576   -4.6236   15.8860 O   0  0  0  0  0  0  0  0  0  0  0  0
    9.1509   -5.9108   17.7177 C   0  0  0  0  0  0  0  0  0  0  0  0
    3.6373   -9.5349   16.0582 N   0  0  0  0  0  0  0  0  0  0  0  0
    9.9275   -4.8001   18.0438 N   0  0  0  0  0  0  0  0  0  0  0  0
    8.5908   -5.7425   16.4412 C   0  0  0  0  0  0  0  0  0  0  0  0
   10.5993   -4.8981   21.6068 C   0  0  0  0  0  0  0  0  0  0  0  0
   10.4258   -3.0106   23.0998 C   0  0  0  0  0  0  0  0  0  0  0  0
   10.2148   -3.4364   25.4200 C   0  0  0  0  0  0  0  0  0  0  0  0
    9.7853   -1.1840   24.4927 C   0  0  0  0  0  0  0  0  0  0  0  0
    5.0276   -8.5227   17.5352 C   0  0  0  0  0  0  0  0  0  0  0  0
    9.8187   -2.0895   25.5800 C   0  0  0  0  0  0  0  0  0  0  0  0
    5.6473   -8.7216   15.3158 C   0  0  0  0  0  0  0  0  0  0  0  0
   10.7581   -3.1233   19.4720 N   0  0  0  0  0  0  0  0  0  0  0  0
    9.9571   -4.0573   16.8866 C   0  0  0  0  0  0  0  0  0  0  0  0
    7.6213   -6.5618   16.0087 C   0  0  0  0  0  0  0  0  0  0  0  0
   10.8583   -2.6527   20.7222 C   0  0  0  0  0  0  0  0  0  0  0  0
   10.6412   -3.5089   21.7936 C   0  0  0  0  0  0  0  0  0  0  0  0
   10.4972   -3.8968   24.1589 C   0  0  0  0  0  0  0  0  0  0  0  0
    5.9260   -8.2736   16.5517 C   0  0  0  0  0  0  0  0  0  0  0  0
    3.8816   -9.1166   17.2493 C   0  0  0  0  0  0  0  0  0  0  0  0
   10.1297   -1.6575   23.2324 C   0  0  0  0  0  0  0  0  0  0  0  0
    9.4684   -1.6929   26.7263 F   0  0  0  0  0  0  0  0  0  0  0  0
    7.7963   -7.7906   17.9837 C   0  0  0  0  0  0  0  0  0  0  0  0
   10.5884   -3.0725   16.7902 O   0  0  0  0  0  0  0  0  0  0  0  0
   10.4323   -5.3494   20.3516 C   0  0  0  0  0  0  0  0  0  0  0  0
    7.1156   -7.5454   16.8218 C   0  0  0  0  0  0  0  0  0  0  0  0
   10.3885   -4.4388   19.2773 C   0  0  0  0  0  0  0  0  0  0  0  0
    4.5160   -9.3822   15.0841 C   0  0  0  0  0  0  0  0  0  0  0  0
  1  3  4  0
  1 24  4  0
  2  6  4  0
  2 15  4  0
  3  5  4  0
  3  6  4  0
  4 21  4  0
  4 29  4  0
  5 15  4  0
  5 28  1  0
  6 16  4  0
  7 18  4  0
  7 26  4  0
  8 18  1  0
  8 19  4  0
  8 22  4  0
  9 12  4  0
  9 19  4  0
 10 12  4  0
 10 22  4  0
 11 20  4  0
 11 21  4  0
 12 23  1  0
 13 20  4  0
 13 29  4  0
 14 17  4  0
 14 28  4  0
 15 25  2  0
 16 27  4  0
 17 18  4  0
 20 27  1  0
 24 27  4  0
 26 28  4  0
M  END
$$$$

 Created by Python create_sdf_string function

 29 33  0  0  0  0  0  0  0  0999 V2000
    8.8270   -7.0288   18.4251 C   0  0  0  0  0  0  0  0  0  0  0  0
    9.1576   -4.6236   15.8860 O   0  0  0  0  0  0  0  0  0  0  0  0
    9.1509   -5.9108   17.7177 C   0  0  0  0  0  0  0  0  0  0  0  0
    3.6373   -9.5349   16.0582 N   0  0  0  0  0  0  0  0  0  0  0  0
    9.9275   -4.8001   18.0438 N   0  0  0  0  0  0  0  0  0  0  0  0
    8.5908   -5.7425   16.4412 C   0  0  0  0  0  0  0  0  0  0  0  0
   10.5993   -4.8981   21.6068 C   0  0  0  0  0  0  0  0  0  0  0  0
   10.4258   -3.0106   23.0998 C   0  0  0  0  0  0  0  0  0  0  0  0
   10.2148   -3.4364   25.4200 C   0  0  0  0  0  0  0  0  0  0  0  0
    9.7853   -1.1840   24.4927 C   0  0  0  0  0  0  0  0  0  0  0  0
    5.0276   -8.5227   17.5352 C   0  0  0  0  0  0  0  0  0  0  0  0
    9.8187   -2.0895   25.5800 C   0  0  0  0  0  0  0  0  0  0  0  0
    5.6473   -8.7216   15.3158 C   0  0  0  0  0  0  0  0  0  0  0  0
   10.7581   -3.1233   19.4720 N   0  0  0  0  0  0  0  0  0  0  0  0
    9.9571   -4.0573   16.8866 C   0  0  0  0  0  0  0  0  0  0  0  0
    7.6213   -6.5618   16.0087 C   0  0  0  0  0  0  0  0  0  0  0  0
   10.8583   -2.6527   20.7222 C   0  0  0  0  0  0  0  0  0  0  0  0
   10.6412   -3.5089   21.7936 C   0  0  0  0  0  0  0  0  0  0  0  0
   10.4972   -3.8968   24.1589 C   0  0  0  0  0  0  0  0  0  0  0  0
    5.9260   -8.2736   16.5517 C   0  0  0  0  0  0  0  0  0  0  0  0
    3.8816   -9.1166   17.2493 C   0  0  0  0  0  0  0  0  0  0  0  0
   10.1297   -1.6575   23.2324 C   0  0  0  0  0  0  0  0  0  0  0  0
    9.4684   -1.6929   26.7263 F   0  0  0  0  0  0  0  0  0  0  0  0
    7.7963   -7.7906   17.9837 C   0  0  0  0  0  0  0  0  0  0  0  0
   10.5884   -3.0725   16.7902 O   0  0  0  0  0  0  0  0  0  0  0  0
   10.4323   -5.3494   20.3516 C   0  0  0  0  0  0  0  0  0  0  0  0
    7.1156   -7.5454   16.8218 C   0  0  0  0  0  0  0  0  0  0  0  0
   10.3885   -4.4388   19.2773 C   0  0  0  0  0  0  0  0  0  0  0  0
    4.5160   -9.3822   15.0841 C   0  0  0  0  0  0  0  0  0  0  0  0
  1  3  4  0
  1 24  4  0
  2  6  4  0
  2 15  4  0
  3  5  4  0
  3  6  4  0
  4 21  4  0
  4 29  4  0
  5 15  4  0
  5 28  1  0
  6 16  4  0
  7 18  4  0
  7 26  4  0
  8 18  1  0
  8 19  4  0
  8 22  4  0
  9 12  4  0
  9 19  4  0
 10 12  4  0
 10 22  4  0
 11 20  4  0
 11 21  4  0
 12 23  1  0
 13 20  4  0
 13 29  4  0
 14 17  4  0
 14 28  4  0
 15 25  2  0
 16 27  4  0
 17 18  4  0
 20 27  1  0
 24 27  4  0
 26 28  4  0
M  END
$$$$

 Created by Python create_sdf_string function

 29 33  0  0  0  0  0  0  0  0999 V2000
    8.8270   -7.0288   18.4251 C   0  0  0  0  0  0  0  0  0  0  0  0
    9.1576   -4.6236   15.8860 O   0  0  0  0  0  0  0  0  0  0  0  0
    9.1509   -5.9108   17.7177 C   0  0  0  0  0  0  0  0  0  0  0  0
    3.6373   -9.5349   16.0582 N   0  0  0  0  0  0  0  0  0  0  0  0
    9.9275   -4.8001   18.0438 N   0  0  0  0  0  0  0  0  0  0  0  0
    8.5908   -5.7425   16.4412 C   0  0  0  0  0  0  0  0  0  0  0  0
   10.5993   -4.8981   21.6068 C   0  0  0  0  0  0  0  0  0  0  0  0
   10.4258   -3.0106   23.0998 C   0  0  0  0  0  0  0  0  0  0  0  0
   10.2148   -3.4364   25.4200 C   0  0  0  0  0  0  0  0  0  0  0  0
    9.7853   -1.1840   24.4927 C   0  0  0  0  0  0  0  0  0  0  0  0
    5.0276   -8.5227   17.5352 C   0  0  0  0  0  0  0  0  0  0  0  0
    9.8187   -2.0895   25.5800 C   0  0  0  0  0  0  0  0  0  0  0  0
    5.6473   -8.7216   15.3158 C   0  0  0  0  0  0  0  0  0  0  0  0
   10.7581   -3.1233   19.4720 N   0  0  0  0  0  0  0  0  0  0  0  0
    9.9571   -4.0573   16.8866 C   0  0  0  0  0  0  0  0  0  0  0  0
    7.6213   -6.5618   16.0087 C   0  0  0  0  0  0  0  0  0  0  0  0
   10.8583   -2.6527   20.7222 C   0  0  0  0  0  0  0  0  0  0  0  0
   10.6412   -3.5089   21.7936 C   0  0  0  0  0  0  0  0  0  0  0  0
   10.4972   -3.8968   24.1589 C   0  0  0  0  0  0  0  0  0  0  0  0
    5.9260   -8.2736   16.5517 C   0  0  0  0  0  0  0  0  0  0  0  0
    3.8816   -9.1166   17.2493 C   0  0  0  0  0  0  0  0  0  0  0  0
   10.1297   -1.6575   23.2324 C   0  0  0  0  0  0  0  0  0  0  0  0
    9.4684   -1.6929   26.7263 F   0  0  0  0  0  0  0  0  0  0  0  0
    7.7963   -7.7906   17.9837 C   0  0  0  0  0  0  0  0  0  0  0  0
   10.5884   -3.0725   16.7902 O   0  0  0  0  0  0  0  0  0  0  0  0
   10.4323   -5.3494   20.3516 C   0  0  0  0  0  0  0  0  0  0  0  0
    7.1156   -7.5454   16.8218 C   0  0  0  0  0  0  0  0  0  0  0  0
   10.3885   -4.4388   19.2773 C   0  0  0  0  0  0  0  0  0  0  0  0
    4.5160   -9.3822   15.0841 C   0  0  0  0  0  0  0  0  0  0  0  0
  1  3  4  0
  1 24  4  0
  2  6  4  0
  2 15  4  0
  3  5  4  0
  3  6  4  0
  4 21  4  0
  4 29  4  0
  5 15  4  0
  5 28  1  0
  6 16  4  0
  7 18  4  0
  7 26  4  0
  8 18  1  0
  8 19  4  0
  8 22  4  0
  9 12  4  0
  9 19  4  0
 10 12  4  0
 10 22  4  0
 11 20  4  0
 11 21  4  0
 12 23  1  0
 13 20  4  0
 13 29  4  0
 14 17  4  0
 14 28  4  0
 15 25  2  0
 16 27  4  0
 17 18  4  0
 20 27  1  0
 24 27  4  0
 26 28  4  0
M  END
$$$$

 Created by Python create_sdf_string function

 29 33  0  0  0  0  0  0  0  0999 V2000
    8.8270   -7.0288   18.4251 C   0  0  0  0  0  0  0  0  0  0  0  0
    9.1576   -4.6236   15.8860 O   0  0  0  0  0  0  0  0  0  0  0  0
    9.1509   -5.9108   17.7177 C   0  0  0  0  0  0  0  0  0  0  0  0
    3.6373   -9.5349   16.0582 N   0  0  0  0  0  0  0  0  0  0  0  0
    9.9275   -4.8001   18.0438 N   0  0  0  0  0  0  0  0  0  0  0  0
    8.5908   -5.7425   16.4412 C   0  0  0  0  0  0  0  0  0  0  0  0
   10.5993   -4.8981   21.6068 C   0  0  0  0  0  0  0  0  0  0  0  0
   10.4258   -3.0106   23.0998 C   0  0  0  0  0  0  0  0  0  0  0  0
   10.2148   -3.4364   25.4200 C   0  0  0  0  0  0  0  0  0  0  0  0
    9.7853   -1.1840   24.4927 C   0  0  0  0  0  0  0  0  0  0  0  0
    5.0276   -8.5227   17.5352 C   0  0  0  0  0  0  0  0  0  0  0  0
    9.8187   -2.0895   25.5800 C   0  0  0  0  0  0  0  0  0  0  0  0
    5.6473   -8.7216   15.3158 C   0  0  0  0  0  0  0  0  0  0  0  0
   10.7581   -3.1233   19.4720 N   0  0  0  0  0  0  0  0  0  0  0  0
    9.9571   -4.0573   16.8866 C   0  0  0  0  0  0  0  0  0  0  0  0
    7.6213   -6.5618   16.0087 C   0  0  0  0  0  0  0  0  0  0  0  0
   10.8583   -2.6527   20.7222 C   0  0  0  0  0  0  0  0  0  0  0  0
   10.6412   -3.5089   21.7936 C   0  0  0  0  0  0  0  0  0  0  0  0
   10.4972   -3.8968   24.1589 C   0  0  0  0  0  0  0  0  0  0  0  0
    5.9260   -8.2736   16.5517 C   0  0  0  0  0  0  0  0  0  0  0  0
    3.8816   -9.1166   17.2493 C   0  0  0  0  0  0  0  0  0  0  0  0
   10.1297   -1.6575   23.2324 C   0  0  0  0  0  0  0  0  0  0  0  0
    9.4684   -1.6929   26.7263 F   0  0  0  0  0  0  0  0  0  0  0  0
    7.7963   -7.7906   17.9837 C   0  0  0  0  0  0  0  0  0  0  0  0
   10.5884   -3.0725   16.7902 O   0  0  0  0  0  0  0  0  0  0  0  0
   10.4323   -5.3494   20.3516 C   0  0  0  0  0  0  0  0  0  0  0  0
    7.1156   -7.5454   16.8218 C   0  0  0  0  0  0  0  0  0  0  0  0
   10.3885   -4.4388   19.2773 C   0  0  0  0  0  0  0  0  0  0  0  0
    4.5160   -9.3822   15.0841 C   0  0  0  0  0  0  0  0  0  0  0  0
  1  3  4  0
  1 24  4  0
  2  6  4  0
  2 15  4  0
  3  5  4  0
  3  6  4  0
  4 21  4  0
  4 29  4  0
  5 15  4  0
  5 28  1  0
  6 16  4  0
  7 18  4  0
  7 26  4  0
  8 18  1  0
  8 19  4  0
  8 22  4  0
  9 12  4  0
  9 19  4  0
 10 12  4  0
 10 22  4  0
 11 20  4  0
 11 21  4  0
 12 23  1  0
 13 20  4  0
 13 29  4  0
 14 17  4  0
 14 28  4  0
 15 25  2  0
 16 27  4  0
 17 18  4  0
 20 27  1  0
 24 27  4  0
 26 28  4  0
M  END
$$$$

 Created by Python create_sdf_string function

 29 33  0  0  0  0  0  0  0  0999 V2000
    8.8270   -7.0288   18.4251 C   0  0  0  0  0  0  0  0  0  0  0  0
    9.1576   -4.6236   15.8860 O   0  0  0  0  0  0  0  0  0  0  0  0
    9.1509   -5.9108   17.7177 C   0  0  0  0  0  0  0  0  0  0  0  0
    3.6373   -9.5349   16.0582 N   0  0  0  0  0  0  0  0  0  0  0  0
    9.9275   -4.8001   18.0438 N   0  0  0  0  0  0  0  0  0  0  0  0
    8.5908   -5.7425   16.4412 C   0  0  0  0  0  0  0  0  0  0  0  0
   10.5993   -4.8981   21.6068 C   0  0  0  0  0  0  0  0  0  0  0  0
   10.4258   -3.0106   23.0998 C   0  0  0  0  0  0  0  0  0  0  0  0
   10.2148   -3.4364   25.4200 C   0  0  0  0  0  0  0  0  0  0  0  0
    9.7853   -1.1840   24.4927 C   0  0  0  0  0  0  0  0  0  0  0  0
    5.0276   -8.5227   17.5352 C   0  0  0  0  0  0  0  0  0  0  0  0
    9.8187   -2.0895   25.5800 C   0  0  0  0  0  0  0  0  0  0  0  0
    5.6473   -8.7216   15.3158 C   0  0  0  0  0  0  0  0  0  0  0  0
   10.7581   -3.1233   19.4720 N   0  0  0  0  0  0  0  0  0  0  0  0
    9.9571   -4.0573   16.8866 C   0  0  0  0  0  0  0  0  0  0  0  0
    7.6213   -6.5618   16.0087 C   0  0  0  0  0  0  0  0  0  0  0  0
   10.8583   -2.6527   20.7222 C   0  0  0  0  0  0  0  0  0  0  0  0
   10.6412   -3.5089   21.7936 C   0  0  0  0  0  0  0  0  0  0  0  0
   10.4972   -3.8968   24.1589 C   0  0  0  0  0  0  0  0  0  0  0  0
    5.9260   -8.2736   16.5517 C   0  0  0  0  0  0  0  0  0  0  0  0
    3.8816   -9.1166   17.2493 C   0  0  0  0  0  0  0  0  0  0  0  0
   10.1297   -1.6575   23.2324 C   0  0  0  0  0  0  0  0  0  0  0  0
    9.4684   -1.6929   26.7263 F   0  0  0  0  0  0  0  0  0  0  0  0
    7.7963   -7.7906   17.9837 C   0  0  0  0  0  0  0  0  0  0  0  0
   10.5884   -3.0725   16.7902 O   0  0  0  0  0  0  0  0  0  0  0  0
   10.4323   -5.3494   20.3516 C   0  0  0  0  0  0  0  0  0  0  0  0
    7.1156   -7.5454   16.8218 C   0  0  0  0  0  0  0  0  0  0  0  0
   10.3885   -4.4388   19.2773 C   0  0  0  0  0  0  0  0  0  0  0  0
    4.5160   -9.3822   15.0841 C   0  0  0  0  0  0  0  0  0  0  0  0
  1  3  4  0
  1 24  4  0
  2  6  4  0
  2 15  4  0
  3  5  4  0
  3  6  4  0
  4 21  4  0
  4 29  4  0
  5 15  4  0
  5 28  1  0
  6 16  4  0
  7 18  4  0
  7 26  4  0
  8 18  1  0
  8 19  4  0
  8 22  4  0
  9 12  4  0
  9 19  4  0
 10 12  4  0
 10 22  4  0
 11 20  4  0
 11 21  4  0
 12 23  1  0
 13 20  4  0
 13 29  4  0
 14 17  4  0
 14 28  4  0
 15 25  2  0
 16 27  4  0
 17 18  4  0
 20 27  1  0
 24 27  4  0
 26 28  4  0
M  END
$$$$

 Created by Python create_sdf_string function

 29 33  0  0  0  0  0  0  0  0999 V2000
    8.8270   -7.0288   18.4251 C   0  0  0  0  0  0  0  0  0  0  0  0
    9.1576   -4.6236   15.8860 O   0  0  0  0  0  0  0  0  0  0  0  0
    9.1509   -5.9108   17.7177 C   0  0  0  0  0  0  0  0  0  0  0  0
    3.6373   -9.5349   16.0582 N   0  0  0  0  0  0  0  0  0  0  0  0
    9.9275   -4.8001   18.0438 N   0  0  0  0  0  0  0  0  0  0  0  0
    8.5908   -5.7425   16.4412 C   0  0  0  0  0  0  0  0  0  0  0  0
   10.5993   -4.8981   21.6068 C   0  0  0  0  0  0  0  0  0  0  0  0
   10.4258   -3.0106   23.0998 C   0  0  0  0  0  0  0  0  0  0  0  0
   10.2148   -3.4364   25.4200 C   0  0  0  0  0  0  0  0  0  0  0  0
    9.7853   -1.1840   24.4927 C   0  0  0  0  0  0  0  0  0  0  0  0
    5.0276   -8.5227   17.5352 C   0  0  0  0  0  0  0  0  0  0  0  0
    9.8187   -2.0895   25.5800 C   0  0  0  0  0  0  0  0  0  0  0  0
    5.6473   -8.7216   15.3158 C   0  0  0  0  0  0  0  0  0  0  0  0
   10.7581   -3.1233   19.4720 N   0  0  0  0  0  0  0  0  0  0  0  0
    9.9571   -4.0573   16.8866 C   0  0  0  0  0  0  0  0  0  0  0  0
    7.6213   -6.5618   16.0087 C   0  0  0  0  0  0  0  0  0  0  0  0
   10.8583   -2.6527   20.7222 C   0  0  0  0  0  0  0  0  0  0  0  0
   10.6412   -3.5089   21.7936 C   0  0  0  0  0  0  0  0  0  0  0  0
   10.4972   -3.8968   24.1589 C   0  0  0  0  0  0  0  0  0  0  0  0
    5.9260   -8.2736   16.5517 C   0  0  0  0  0  0  0  0  0  0  0  0
    3.8816   -9.1166   17.2493 C   0  0  0  0  0  0  0  0  0  0  0  0
   10.1297   -1.6575   23.2324 C   0  0  0  0  0  0  0  0  0  0  0  0
    9.4684   -1.6929   26.7263 F   0  0  0  0  0  0  0  0  0  0  0  0
    7.7963   -7.7906   17.9837 C   0  0  0  0  0  0  0  0  0  0  0  0
   10.5884   -3.0725   16.7902 O   0  0  0  0  0  0  0  0  0  0  0  0
   10.4323   -5.3494   20.3516 C   0  0  0  0  0  0  0  0  0  0  0  0
    7.1156   -7.5454   16.8218 C   0  0  0  0  0  0  0  0  0  0  0  0
   10.3885   -4.4388   19.2773 C   0  0  0  0  0  0  0  0  0  0  0  0
    4.5160   -9.3822   15.0841 C   0  0  0  0  0  0  0  0  0  0  0  0
  1  3  4  0
  1 24  4  0
  2  6  4  0
  2 15  4  0
  3  5  4  0
  3  6  4  0
  4 21  4  0
  4 29  4  0
  5 15  4  0
  5 28  1  0
  6 16  4  0
  7 18  4  0
  7 26  4  0
  8 18  1  0
  8 19  4  0
  8 22  4  0
  9 12  4  0
  9 19  4  0
 10 12  4  0
 10 22  4  0
 11 20  4  0
 11 21  4  0
 12 23  1  0
 13 20  4  0
 13 29  4  0
 14 17  4  0
 14 28  4  0
 15 25  2  0
 16 27  4  0
 17 18  4  0
 20 27  1  0
 24 27  4  0
 26 28  4  0
M  END
$$$$

 Created by Python create_sdf_string function

 29 33  0  0  0  0  0  0  0  0999 V2000
    8.8270   -7.0288   18.4251 C   0  0  0  0  0  0  0  0  0  0  0  0
    9.1576   -4.6236   15.8860 O   0  0  0  0  0  0  0  0  0  0  0  0
    9.1509   -5.9108   17.7177 C   0  0  0  0  0  0  0  0  0  0  0  0
    3.6373   -9.5349   16.0582 N   0  0  0  0  0  0  0  0  0  0  0  0
    9.9275   -4.8001   18.0438 N   0  0  0  0  0  0  0  0  0  0  0  0
    8.5908   -5.7425   16.4412 C   0  0  0  0  0  0  0  0  0  0  0  0
   10.5993   -4.8981   21.6068 C   0  0  0  0  0  0  0  0  0  0  0  0
   10.4258   -3.0106   23.0998 C   0  0  0  0  0  0  0  0  0  0  0  0
   10.2148   -3.4364   25.4200 C   0  0  0  0  0  0  0  0  0  0  0  0
    9.7853   -1.1840   24.4927 C   0  0  0  0  0  0  0  0  0  0  0  0
    5.0276   -8.5227   17.5352 C   0  0  0  0  0  0  0  0  0  0  0  0
    9.8187   -2.0895   25.5800 C   0  0  0  0  0  0  0  0  0  0  0  0
    5.6473   -8.7216   15.3158 C   0  0  0  0  0  0  0  0  0  0  0  0
   10.7581   -3.1233   19.4720 N   0  0  0  0  0  0  0  0  0  0  0  0
    9.9571   -4.0573   16.8866 C   0  0  0  0  0  0  0  0  0  0  0  0
    7.6213   -6.5618   16.0087 C   0  0  0  0  0  0  0  0  0  0  0  0
   10.8583   -2.6527   20.7222 C   0  0  0  0  0  0  0  0  0  0  0  0
   10.6412   -3.5089   21.7936 C   0  0  0  0  0  0  0  0  0  0  0  0
   10.4972   -3.8968   24.1589 C   0  0  0  0  0  0  0  0  0  0  0  0
    5.9260   -8.2736   16.5517 C   0  0  0  0  0  0  0  0  0  0  0  0
    3.8816   -9.1166   17.2493 C   0  0  0  0  0  0  0  0  0  0  0  0
   10.1297   -1.6575   23.2324 C   0  0  0  0  0  0  0  0  0  0  0  0
    9.4684   -1.6929   26.7263 F   0  0  0  0  0  0  0  0  0  0  0  0
    7.7963   -7.7906   17.9837 C   0  0  0  0  0  0  0  0  0  0  0  0
   10.5884   -3.0725   16.7902 O   0  0  0  0  0  0  0  0  0  0  0  0
   10.4323   -5.3494   20.3516 C   0  0  0  0  0  0  0  0  0  0  0  0
    7.1156   -7.5454   16.8218 C   0  0  0  0  0  0  0  0  0  0  0  0
   10.3885   -4.4388   19.2773 C   0  0  0  0  0  0  0  0  0  0  0  0
    4.5160   -9.3822   15.0841 C   0  0  0  0  0  0  0  0  0  0  0  0
  1  3  4  0
  1 24  4  0
  2  6  4  0
  2 15  4  0
  3  5  4  0
  3  6  4  0
  4 21  4  0
  4 29  4  0
  5 15  4  0
  5 28  1  0
  6 16  4  0
  7 18  4  0
  7 26  4  0
  8 18  1  0
  8 19  4  0
  8 22  4  0
  9 12  4  0
  9 19  4  0
 10 12  4  0
 10 22  4  0
 11 20  4  0
 11 21  4  0
 12 23  1  0
 13 20  4  0
 13 29  4  0
 14 17  4  0
 14 28  4  0
 15 25  2  0
 16 27  4  0
 17 18  4  0
 20 27  1  0
 24 27  4  0
 26 28  4  0
M  END
$$$$

 Created by Python create_sdf_string function

 29 33  0  0  0  0  0  0  0  0999 V2000
    8.8270   -7.0288   18.4251 C   0  0  0  0  0  0  0  0  0  0  0  0
    9.1576   -4.6236   15.8860 O   0  0  0  0  0  0  0  0  0  0  0  0
    9.1509   -5.9108   17.7177 C   0  0  0  0  0  0  0  0  0  0  0  0
    3.6373   -9.5349   16.0582 N   0  0  0  0  0  0  0  0  0  0  0  0
    9.9275   -4.8001   18.0438 N   0  0  0  0  0  0  0  0  0  0  0  0
    8.5908   -5.7425   16.4412 C   0  0  0  0  0  0  0  0  0  0  0  0
   10.5993   -4.8981   21.6068 C   0  0  0  0  0  0  0  0  0  0  0  0
   10.4258   -3.0106   23.0998 C   0  0  0  0  0  0  0  0  0  0  0  0
   10.2148   -3.4364   25.4200 C   0  0  0  0  0  0  0  0  0  0  0  0
    9.7853   -1.1840   24.4927 C   0  0  0  0  0  0  0  0  0  0  0  0
    5.0276   -8.5227   17.5352 C   0  0  0  0  0  0  0  0  0  0  0  0
    9.8187   -2.0895   25.5800 C   0  0  0  0  0  0  0  0  0  0  0  0
    5.6473   -8.7216   15.3158 C   0  0  0  0  0  0  0  0  0  0  0  0
   10.7581   -3.1233   19.4720 N   0  0  0  0  0  0  0  0  0  0  0  0
    9.9571   -4.0573   16.8866 C   0  0  0  0  0  0  0  0  0  0  0  0
    7.6213   -6.5618   16.0087 C   0  0  0  0  0  0  0  0  0  0  0  0
   10.8583   -2.6527   20.7222 C   0  0  0  0  0  0  0  0  0  0  0  0
   10.6412   -3.5089   21.7936 C   0  0  0  0  0  0  0  0  0  0  0  0
   10.4972   -3.8968   24.1589 C   0  0  0  0  0  0  0  0  0  0  0  0
    5.9260   -8.2736   16.5517 C   0  0  0  0  0  0  0  0  0  0  0  0
    3.8816   -9.1166   17.2493 C   0  0  0  0  0  0  0  0  0  0  0  0
   10.1297   -1.6575   23.2324 C   0  0  0  0  0  0  0  0  0  0  0  0
    9.4684   -1.6929   26.7263 F   0  0  0  0  0  0  0  0  0  0  0  0
    7.7963   -7.7906   17.9837 C   0  0  0  0  0  0  0  0  0  0  0  0
   10.5884   -3.0725   16.7902 O   0  0  0  0  0  0  0  0  0  0  0  0
   10.4323   -5.3494   20.3516 C   0  0  0  0  0  0  0  0  0  0  0  0
    7.1156   -7.5454   16.8218 C   0  0  0  0  0  0  0  0  0  0  0  0
   10.3885   -4.4388   19.2773 C   0  0  0  0  0  0  0  0  0  0  0  0
    4.5160   -9.3822   15.0841 C   0  0  0  0  0  0  0  0  0  0  0  0
  1  3  4  0
  1 24  4  0
  2  6  4  0
  2 15  4  0
  3  5  4  0
  3  6  4  0
  4 21  4  0
  4 29  4  0
  5 15  4  0
  5 28  1  0
  6 16  4  0
  7 18  4  0
  7 26  4  0
  8 18  1  0
  8 19  4  0
  8 22  4  0
  9 12  4  0
  9 19  4  0
 10 12  4  0
 10 22  4  0
 11 20  4  0
 11 21  4  0
 12 23  1  0
 13 20  4  0
 13 29  4  0
 14 17  4  0
 14 28  4  0
 15 25  2  0
 16 27  4  0
 17 18  4  0
 20 27  1  0
 24 27  4  0
 26 28  4  0
M  END
$$$$

 Created by Python create_sdf_string function

 29 33  0  0  0  0  0  0  0  0999 V2000
    8.8270   -7.0288   18.4251 C   0  0  0  0  0  0  0  0  0  0  0  0
    9.1576   -4.6236   15.8860 O   0  0  0  0  0  0  0  0  0  0  0  0
    9.1509   -5.9108   17.7177 C   0  0  0  0  0  0  0  0  0  0  0  0
    3.6373   -9.5349   16.0582 N   0  0  0  0  0  0  0  0  0  0  0  0
    9.9275   -4.8001   18.0438 N   0  0  0  0  0  0  0  0  0  0  0  0
    8.5908   -5.7425   16.4412 C   0  0  0  0  0  0  0  0  0  0  0  0
   10.5993   -4.8981   21.6068 C   0  0  0  0  0  0  0  0  0  0  0  0
   10.4258   -3.0106   23.0998 C   0  0  0  0  0  0  0  0  0  0  0  0
   10.2148   -3.4364   25.4200 C   0  0  0  0  0  0  0  0  0  0  0  0
    9.7853   -1.1840   24.4927 C   0  0  0  0  0  0  0  0  0  0  0  0
    5.0276   -8.5227   17.5352 C   0  0  0  0  0  0  0  0  0  0  0  0
    9.8187   -2.0895   25.5800 C   0  0  0  0  0  0  0  0  0  0  0  0
    5.6473   -8.7216   15.3158 C   0  0  0  0  0  0  0  0  0  0  0  0
   10.7581   -3.1233   19.4720 N   0  0  0  0  0  0  0  0  0  0  0  0
    9.9571   -4.0573   16.8866 C   0  0  0  0  0  0  0  0  0  0  0  0
    7.6213   -6.5618   16.0087 C   0  0  0  0  0  0  0  0  0  0  0  0
   10.8583   -2.6527   20.7222 C   0  0  0  0  0  0  0  0  0  0  0  0
   10.6412   -3.5089   21.7936 C   0  0  0  0  0  0  0  0  0  0  0  0
   10.4972   -3.8968   24.1589 C   0  0  0  0  0  0  0  0  0  0  0  0
    5.9260   -8.2736   16.5517 C   0  0  0  0  0  0  0  0  0  0  0  0
    3.8816   -9.1166   17.2493 C   0  0  0  0  0  0  0  0  0  0  0  0
   10.1297   -1.6575   23.2324 C   0  0  0  0  0  0  0  0  0  0  0  0
    9.4684   -1.6929   26.7263 F   0  0  0  0  0  0  0  0  0  0  0  0
    7.7963   -7.7906   17.9837 C   0  0  0  0  0  0  0  0  0  0  0  0
   10.5884   -3.0725   16.7902 O   0  0  0  0  0  0  0  0  0  0  0  0
   10.4323   -5.3494   20.3516 C   0  0  0  0  0  0  0  0  0  0  0  0
    7.1156   -7.5454   16.8218 C   0  0  0  0  0  0  0  0  0  0  0  0
   10.3885   -4.4388   19.2773 C   0  0  0  0  0  0  0  0  0  0  0  0
    4.5160   -9.3822   15.0841 C   0  0  0  0  0  0  0  0  0  0  0  0
  1  3  4  0
  1 24  4  0
  2  6  4  0
  2 15  4  0
  3  5  4  0
  3  6  4  0
  4 21  4  0
  4 29  4  0
  5 15  4  0
  5 28  1  0
  6 16  4  0
  7 18  4  0
  7 26  4  0
  8 18  1  0
  8 19  4  0
  8 22  4  0
  9 12  4  0
  9 19  4  0
 10 12  4  0
 10 22  4  0
 11 20  4  0
 11 21  4  0
 12 23  1  0
 13 20  4  0
 13 29  4  0
 14 17  4  0
 14 28  4  0
 15 25  2  0
 16 27  4  0
 17 18  4  0
 20 27  1  0
 24 27  4  0
 26 28  4  0
M  END
$$$$

 Created by Python create_sdf_string function

 29 33  0  0  0  0  0  0  0  0999 V2000
    8.8270   -7.0288   18.4251 C   0  0  0  0  0  0  0  0  0  0  0  0
    9.1576   -4.6236   15.8860 O   0  0  0  0  0  0  0  0  0  0  0  0
    9.1509   -5.9108   17.7177 C   0  0  0  0  0  0  0  0  0  0  0  0
    3.6373   -9.5349   16.0582 N   0  0  0  0  0  0  0  0  0  0  0  0
    9.9275   -4.8001   18.0438 N   0  0  0  0  0  0  0  0  0  0  0  0
    8.5908   -5.7425   16.4412 C   0  0  0  0  0  0  0  0  0  0  0  0
   10.5993   -4.8981   21.6068 C   0  0  0  0  0  0  0  0  0  0  0  0
   10.4258   -3.0106   23.0998 C   0  0  0  0  0  0  0  0  0  0  0  0
   10.2148   -3.4364   25.4200 C   0  0  0  0  0  0  0  0  0  0  0  0
    9.7853   -1.1840   24.4927 C   0  0  0  0  0  0  0  0  0  0  0  0
    5.0276   -8.5227   17.5352 C   0  0  0  0  0  0  0  0  0  0  0  0
    9.8187   -2.0895   25.5800 C   0  0  0  0  0  0  0  0  0  0  0  0
    5.6473   -8.7216   15.3158 C   0  0  0  0  0  0  0  0  0  0  0  0
   10.7581   -3.1233   19.4720 N   0  0  0  0  0  0  0  0  0  0  0  0
    9.9571   -4.0573   16.8866 C   0  0  0  0  0  0  0  0  0  0  0  0
    7.6213   -6.5618   16.0087 C   0  0  0  0  0  0  0  0  0  0  0  0
   10.8583   -2.6527   20.7222 C   0  0  0  0  0  0  0  0  0  0  0  0
   10.6412   -3.5089   21.7936 C   0  0  0  0  0  0  0  0  0  0  0  0
   10.4972   -3.8968   24.1589 C   0  0  0  0  0  0  0  0  0  0  0  0
    5.9260   -8.2736   16.5517 C   0  0  0  0  0  0  0  0  0  0  0  0
    3.8816   -9.1166   17.2493 C   0  0  0  0  0  0  0  0  0  0  0  0
   10.1297   -1.6575   23.2324 C   0  0  0  0  0  0  0  0  0  0  0  0
    9.4684   -1.6929   26.7263 F   0  0  0  0  0  0  0  0  0  0  0  0
    7.7963   -7.7906   17.9837 C   0  0  0  0  0  0  0  0  0  0  0  0
   10.5884   -3.0725   16.7902 O   0  0  0  0  0  0  0  0  0  0  0  0
   10.4323   -5.3494   20.3516 C   0  0  0  0  0  0  0  0  0  0  0  0
    7.1156   -7.5454   16.8218 C   0  0  0  0  0  0  0  0  0  0  0  0
   10.3885   -4.4388   19.2773 C   0  0  0  0  0  0  0  0  0  0  0  0
    4.5160   -9.3822   15.0841 C   0  0  0  0  0  0  0  0  0  0  0  0
  1  3  4  0
  1 24  4  0
  2  6  4  0
  2 15  4  0
  3  5  4  0
  3  6  4  0
  4 21  4  0
  4 29  4  0
  5 15  4  0
  5 28  1  0
  6 16  4  0
  7 18  4  0
  7 26  4  0
  8 18  1  0
  8 19  4  0
  8 22  4  0
  9 12  4  0
  9 19  4  0
 10 12  4  0
 10 22  4  0
 11 20  4  0
 11 21  4  0
 12 23  1  0
 13 20  4  0
 13 29  4  0
 14 17  4  0
 14 28  4  0
 15 25  2  0
 16 27  4  0
 17 18  4  0
 20 27  1  0
 24 27  4  0
 26 28  4  0
M  END
$$$$

 Created by Python create_sdf_string function

 29 33  0  0  0  0  0  0  0  0999 V2000
    8.8270   -7.0288   18.4251 C   0  0  0  0  0  0  0  0  0  0  0  0
    9.1576   -4.6236   15.8860 O   0  0  0  0  0  0  0  0  0  0  0  0
    9.1509   -5.9108   17.7177 C   0  0  0  0  0  0  0  0  0  0  0  0
    3.6373   -9.5349   16.0582 N   0  0  0  0  0  0  0  0  0  0  0  0
    9.9275   -4.8001   18.0438 N   0  0  0  0  0  0  0  0  0  0  0  0
    8.5908   -5.7425   16.4412 C   0  0  0  0  0  0  0  0  0  0  0  0
   10.5993   -4.8981   21.6068 C   0  0  0  0  0  0  0  0  0  0  0  0
   10.4258   -3.0106   23.0998 C   0  0  0  0  0  0  0  0  0  0  0  0
   10.2148   -3.4364   25.4200 C   0  0  0  0  0  0  0  0  0  0  0  0
    9.7853   -1.1840   24.4927 C   0  0  0  0  0  0  0  0  0  0  0  0
    5.0276   -8.5227   17.5352 C   0  0  0  0  0  0  0  0  0  0  0  0
    9.8187   -2.0895   25.5800 C   0  0  0  0  0  0  0  0  0  0  0  0
    5.6473   -8.7216   15.3158 C   0  0  0  0  0  0  0  0  0  0  0  0
   10.7581   -3.1233   19.4720 N   0  0  0  0  0  0  0  0  0  0  0  0
    9.9571   -4.0573   16.8866 C   0  0  0  0  0  0  0  0  0  0  0  0
    7.6213   -6.5618   16.0087 C   0  0  0  0  0  0  0  0  0  0  0  0
   10.8583   -2.6527   20.7222 C   0  0  0  0  0  0  0  0  0  0  0  0
   10.6412   -3.5089   21.7936 C   0  0  0  0  0  0  0  0  0  0  0  0
   10.4972   -3.8968   24.1589 C   0  0  0  0  0  0  0  0  0  0  0  0
    5.9260   -8.2736   16.5517 C   0  0  0  0  0  0  0  0  0  0  0  0
    3.8816   -9.1166   17.2493 C   0  0  0  0  0  0  0  0  0  0  0  0
   10.1297   -1.6575   23.2324 C   0  0  0  0  0  0  0  0  0  0  0  0
    9.4684   -1.6929   26.7263 F   0  0  0  0  0  0  0  0  0  0  0  0
    7.7963   -7.7906   17.9837 C   0  0  0  0  0  0  0  0  0  0  0  0
   10.5884   -3.0725   16.7902 O   0  0  0  0  0  0  0  0  0  0  0  0
   10.4323   -5.3494   20.3516 C   0  0  0  0  0  0  0  0  0  0  0  0
    7.1156   -7.5454   16.8218 C   0  0  0  0  0  0  0  0  0  0  0  0
   10.3885   -4.4388   19.2773 C   0  0  0  0  0  0  0  0  0  0  0  0
    4.5160   -9.3822   15.0841 C   0  0  0  0  0  0  0  0  0  0  0  0
  1  3  4  0
  1 24  4  0
  2  6  4  0
  2 15  4  0
  3  5  4  0
  3  6  4  0
  4 21  4  0
  4 29  4  0
  5 15  4  0
  5 28  1  0
  6 16  4  0
  7 18  4  0
  7 26  4  0
  8 18  1  0
  8 19  4  0
  8 22  4  0
  9 12  4  0
  9 19  4  0
 10 12  4  0
 10 22  4  0
 11 20  4  0
 11 21  4  0
 12 23  1  0
 13 20  4  0
 13 29  4  0
 14 17  4  0
 14 28  4  0
 15 25  2  0
 16 27  4  0
 17 18  4  0
 20 27  1  0
 24 27  4  0
 26 28  4  0
M  END
$$$$

 Created by Python create_sdf_string function

 29 33  0  0  0  0  0  0  0  0999 V2000
    8.8270   -7.0288   18.4251 C   0  0  0  0  0  0  0  0  0  0  0  0
    9.1576   -4.6236   15.8860 O   0  0  0  0  0  0  0  0  0  0  0  0
    9.1509   -5.9108   17.7177 C   0  0  0  0  0  0  0  0  0  0  0  0
    3.6373   -9.5349   16.0582 N   0  0  0  0  0  0  0  0  0  0  0  0
    9.9275   -4.8001   18.0438 N   0  0  0  0  0  0  0  0  0  0  0  0
    8.5908   -5.7425   16.4412 C   0  0  0  0  0  0  0  0  0  0  0  0
   10.5993   -4.8981   21.6068 C   0  0  0  0  0  0  0  0  0  0  0  0
   10.4258   -3.0106   23.0998 C   0  0  0  0  0  0  0  0  0  0  0  0
   10.2148   -3.4364   25.4200 C   0  0  0  0  0  0  0  0  0  0  0  0
    9.7853   -1.1840   24.4927 C   0  0  0  0  0  0  0  0  0  0  0  0
    5.0276   -8.5227   17.5352 C   0  0  0  0  0  0  0  0  0  0  0  0
    9.8187   -2.0895   25.5800 C   0  0  0  0  0  0  0  0  0  0  0  0
    5.6473   -8.7216   15.3158 C   0  0  0  0  0  0  0  0  0  0  0  0
   10.7581   -3.1233   19.4720 N   0  0  0  0  0  0  0  0  0  0  0  0
    9.9571   -4.0573   16.8866 C   0  0  0  0  0  0  0  0  0  0  0  0
    7.6213   -6.5618   16.0087 C   0  0  0  0  0  0  0  0  0  0  0  0
   10.8583   -2.6527   20.7222 C   0  0  0  0  0  0  0  0  0  0  0  0
   10.6412   -3.5089   21.7936 C   0  0  0  0  0  0  0  0  0  0  0  0
   10.4972   -3.8968   24.1589 C   0  0  0  0  0  0  0  0  0  0  0  0
    5.9260   -8.2736   16.5517 C   0  0  0  0  0  0  0  0  0  0  0  0
    3.8816   -9.1166   17.2493 C   0  0  0  0  0  0  0  0  0  0  0  0
   10.1297   -1.6575   23.2324 C   0  0  0  0  0  0  0  0  0  0  0  0
    9.4684   -1.6929   26.7263 F   0  0  0  0  0  0  0  0  0  0  0  0
    7.7963   -7.7906   17.9837 C   0  0  0  0  0  0  0  0  0  0  0  0
   10.5884   -3.0725   16.7902 O   0  0  0  0  0  0  0  0  0  0  0  0
   10.4323   -5.3494   20.3516 C   0  0  0  0  0  0  0  0  0  0  0  0
    7.1156   -7.5454   16.8218 C   0  0  0  0  0  0  0  0  0  0  0  0
   10.3885   -4.4388   19.2773 C   0  0  0  0  0  0  0  0  0  0  0  0
    4.5160   -9.3822   15.0841 C   0  0  0  0  0  0  0  0  0  0  0  0
  1  3  4  0
  1 24  4  0
  2  6  4  0
  2 15  4  0
  3  5  4  0
  3  6  4  0
  4 21  4  0
  4 29  4  0
  5 15  4  0
  5 28  1  0
  6 16  4  0
  7 18  4  0
  7 26  4  0
  8 18  1  0
  8 19  4  0
  8 22  4  0
  9 12  4  0
  9 19  4  0
 10 12  4  0
 10 22  4  0
 11 20  4  0
 11 21  4  0
 12 23  1  0
 13 20  4  0
 13 29  4  0
 14 17  4  0
 14 28  4  0
 15 25  2  0
 16 27  4  0
 17 18  4  0
 20 27  1  0
 24 27  4  0
 26 28  4  0
M  END
$$$$

 Created by Python create_sdf_string function

 29 33  0  0  0  0  0  0  0  0999 V2000
    8.8270   -7.0288   18.4251 C   0  0  0  0  0  0  0  0  0  0  0  0
    9.1576   -4.6236   15.8860 O   0  0  0  0  0  0  0  0  0  0  0  0
    9.1509   -5.9108   17.7177 C   0  0  0  0  0  0  0  0  0  0  0  0
    3.6373   -9.5349   16.0582 N   0  0  0  0  0  0  0  0  0  0  0  0
    9.9275   -4.8001   18.0438 N   0  0  0  0  0  0  0  0  0  0  0  0
    8.5908   -5.7425   16.4412 C   0  0  0  0  0  0  0  0  0  0  0  0
   10.5993   -4.8981   21.6068 C   0  0  0  0  0  0  0  0  0  0  0  0
   10.4258   -3.0106   23.0998 C   0  0  0  0  0  0  0  0  0  0  0  0
   10.2148   -3.4364   25.4200 C   0  0  0  0  0  0  0  0  0  0  0  0
    9.7853   -1.1840   24.4927 C   0  0  0  0  0  0  0  0  0  0  0  0
    5.0276   -8.5227   17.5352 C   0  0  0  0  0  0  0  0  0  0  0  0
    9.8187   -2.0895   25.5800 C   0  0  0  0  0  0  0  0  0  0  0  0
    5.6473   -8.7216   15.3158 C   0  0  0  0  0  0  0  0  0  0  0  0
   10.7581   -3.1233   19.4720 N   0  0  0  0  0  0  0  0  0  0  0  0
    9.9571   -4.0573   16.8866 C   0  0  0  0  0  0  0  0  0  0  0  0
    7.6213   -6.5618   16.0087 C   0  0  0  0  0  0  0  0  0  0  0  0
   10.8583   -2.6527   20.7222 C   0  0  0  0  0  0  0  0  0  0  0  0
   10.6412   -3.5089   21.7936 C   0  0  0  0  0  0  0  0  0  0  0  0
   10.4972   -3.8968   24.1589 C   0  0  0  0  0  0  0  0  0  0  0  0
    5.9260   -8.2736   16.5517 C   0  0  0  0  0  0  0  0  0  0  0  0
    3.8816   -9.1166   17.2493 C   0  0  0  0  0  0  0  0  0  0  0  0
   10.1297   -1.6575   23.2324 C   0  0  0  0  0  0  0  0  0  0  0  0
    9.4684   -1.6929   26.7263 F   0  0  0  0  0  0  0  0  0  0  0  0
    7.7963   -7.7906   17.9837 C   0  0  0  0  0  0  0  0  0  0  0  0
   10.5884   -3.0725   16.7902 O   0  0  0  0  0  0  0  0  0  0  0  0
   10.4323   -5.3494   20.3516 C   0  0  0  0  0  0  0  0  0  0  0  0
    7.1156   -7.5454   16.8218 C   0  0  0  0  0  0  0  0  0  0  0  0
   10.3885   -4.4388   19.2773 C   0  0  0  0  0  0  0  0  0  0  0  0
    4.5160   -9.3822   15.0841 C   0  0  0  0  0  0  0  0  0  0  0  0
  1  3  4  0
  1 24  4  0
  2  6  4  0
  2 15  4  0
  3  5  4  0
  3  6  4  0
  4 21  4  0
  4 29  4  0
  5 15  4  0
  5 28  1  0
  6 16  4  0
  7 18  4  0
  7 26  4  0
  8 18  1  0
  8 19  4  0
  8 22  4  0
  9 12  4  0
  9 19  4  0
 10 12  4  0
 10 22  4  0
 11 20  4  0
 11 21  4  0
 12 23  1  0
 13 20  4  0
 13 29  4  0
 14 17  4  0
 14 28  4  0
 15 25  2  0
 16 27  4  0
 17 18  4  0
 20 27  1  0
 24 27  4  0
 26 28  4  0
M  END
$$$$

 Created by Python create_sdf_string function

 29 33  0  0  0  0  0  0  0  0999 V2000
    8.8270   -7.0288   18.4251 C   0  0  0  0  0  0  0  0  0  0  0  0
    9.1576   -4.6236   15.8860 O   0  0  0  0  0  0  0  0  0  0  0  0
    9.1509   -5.9108   17.7177 C   0  0  0  0  0  0  0  0  0  0  0  0
    3.6373   -9.5349   16.0582 N   0  0  0  0  0  0  0  0  0  0  0  0
    9.9275   -4.8001   18.0438 N   0  0  0  0  0  0  0  0  0  0  0  0
    8.5908   -5.7425   16.4412 C   0  0  0  0  0  0  0  0  0  0  0  0
   10.5993   -4.8981   21.6068 C   0  0  0  0  0  0  0  0  0  0  0  0
   10.4258   -3.0106   23.0998 C   0  0  0  0  0  0  0  0  0  0  0  0
   10.2148   -3.4364   25.4200 C   0  0  0  0  0  0  0  0  0  0  0  0
    9.7853   -1.1840   24.4927 C   0  0  0  0  0  0  0  0  0  0  0  0
    5.0276   -8.5227   17.5352 C   0  0  0  0  0  0  0  0  0  0  0  0
    9.8187   -2.0895   25.5800 C   0  0  0  0  0  0  0  0  0  0  0  0
    5.6473   -8.7216   15.3158 C   0  0  0  0  0  0  0  0  0  0  0  0
   10.7581   -3.1233   19.4720 N   0  0  0  0  0  0  0  0  0  0  0  0
    9.9571   -4.0573   16.8866 C   0  0  0  0  0  0  0  0  0  0  0  0
    7.6213   -6.5618   16.0087 C   0  0  0  0  0  0  0  0  0  0  0  0
   10.8583   -2.6527   20.7222 C   0  0  0  0  0  0  0  0  0  0  0  0
   10.6412   -3.5089   21.7936 C   0  0  0  0  0  0  0  0  0  0  0  0
   10.4972   -3.8968   24.1589 C   0  0  0  0  0  0  0  0  0  0  0  0
    5.9260   -8.2736   16.5517 C   0  0  0  0  0  0  0  0  0  0  0  0
    3.8816   -9.1166   17.2493 C   0  0  0  0  0  0  0  0  0  0  0  0
   10.1297   -1.6575   23.2324 C   0  0  0  0  0  0  0  0  0  0  0  0
    9.4684   -1.6929   26.7263 F   0  0  0  0  0  0  0  0  0  0  0  0
    7.7963   -7.7906   17.9837 C   0  0  0  0  0  0  0  0  0  0  0  0
   10.5884   -3.0725   16.7902 O   0  0  0  0  0  0  0  0  0  0  0  0
   10.4323   -5.3494   20.3516 C   0  0  0  0  0  0  0  0  0  0  0  0
    7.1156   -7.5454   16.8218 C   0  0  0  0  0  0  0  0  0  0  0  0
   10.3885   -4.4388   19.2773 C   0  0  0  0  0  0  0  0  0  0  0  0
    4.5160   -9.3822   15.0841 C   0  0  0  0  0  0  0  0  0  0  0  0
  1  3  4  0
  1 24  4  0
  2  6  4  0
  2 15  4  0
  3  5  4  0
  3  6  4  0
  4 21  4  0
  4 29  4  0
  5 15  4  0
  5 28  1  0
  6 16  4  0
  7 18  4  0
  7 26  4  0
  8 18  1  0
  8 19  4  0
  8 22  4  0
  9 12  4  0
  9 19  4  0
 10 12  4  0
 10 22  4  0
 11 20  4  0
 11 21  4  0
 12 23  1  0
 13 20  4  0
 13 29  4  0
 14 17  4  0
 14 28  4  0
 15 25  2  0
 16 27  4  0
 17 18  4  0
 20 27  1  0
 24 27  4  0
 26 28  4  0
M  END
$$$$

 Created by Python create_sdf_string function

 29 33  0  0  0  0  0  0  0  0999 V2000
    8.8270   -7.0288   18.4251 C   0  0  0  0  0  0  0  0  0  0  0  0
    9.1576   -4.6236   15.8860 O   0  0  0  0  0  0  0  0  0  0  0  0
    9.1509   -5.9108   17.7177 C   0  0  0  0  0  0  0  0  0  0  0  0
    3.6373   -9.5349   16.0582 N   0  0  0  0  0  0  0  0  0  0  0  0
    9.9275   -4.8001   18.0438 N   0  0  0  0  0  0  0  0  0  0  0  0
    8.5908   -5.7425   16.4412 C   0  0  0  0  0  0  0  0  0  0  0  0
   10.5993   -4.8981   21.6068 C   0  0  0  0  0  0  0  0  0  0  0  0
   10.4258   -3.0106   23.0998 C   0  0  0  0  0  0  0  0  0  0  0  0
   10.2148   -3.4364   25.4200 C   0  0  0  0  0  0  0  0  0  0  0  0
    9.7853   -1.1840   24.4927 C   0  0  0  0  0  0  0  0  0  0  0  0
    5.0276   -8.5227   17.5352 C   0  0  0  0  0  0  0  0  0  0  0  0
    9.8187   -2.0895   25.5800 C   0  0  0  0  0  0  0  0  0  0  0  0
    5.6473   -8.7216   15.3158 C   0  0  0  0  0  0  0  0  0  0  0  0
   10.7581   -3.1233   19.4720 N   0  0  0  0  0  0  0  0  0  0  0  0
    9.9571   -4.0573   16.8866 C   0  0  0  0  0  0  0  0  0  0  0  0
    7.6213   -6.5618   16.0087 C   0  0  0  0  0  0  0  0  0  0  0  0
   10.8583   -2.6527   20.7222 C   0  0  0  0  0  0  0  0  0  0  0  0
   10.6412   -3.5089   21.7936 C   0  0  0  0  0  0  0  0  0  0  0  0
   10.4972   -3.8968   24.1589 C   0  0  0  0  0  0  0  0  0  0  0  0
    5.9260   -8.2736   16.5517 C   0  0  0  0  0  0  0  0  0  0  0  0
    3.8816   -9.1166   17.2493 C   0  0  0  0  0  0  0  0  0  0  0  0
   10.1297   -1.6575   23.2324 C   0  0  0  0  0  0  0  0  0  0  0  0
    9.4684   -1.6929   26.7263 F   0  0  0  0  0  0  0  0  0  0  0  0
    7.7963   -7.7906   17.9837 C   0  0  0  0  0  0  0  0  0  0  0  0
   10.5884   -3.0725   16.7902 O   0  0  0  0  0  0  0  0  0  0  0  0
   10.4323   -5.3494   20.3516 C   0  0  0  0  0  0  0  0  0  0  0  0
    7.1156   -7.5454   16.8218 C   0  0  0  0  0  0  0  0  0  0  0  0
   10.3885   -4.4388   19.2773 C   0  0  0  0  0  0  0  0  0  0  0  0
    4.5160   -9.3822   15.0841 C   0  0  0  0  0  0  0  0  0  0  0  0
  1  3  4  0
  1 24  4  0
  2  6  4  0
  2 15  4  0
  3  5  4  0
  3  6  4  0
  4 21  4  0
  4 29  4  0
  5 15  4  0
  5 28  1  0
  6 16  4  0
  7 18  4  0
  7 26  4  0
  8 18  1  0
  8 19  4  0
  8 22  4  0
  9 12  4  0
  9 19  4  0
 10 12  4  0
 10 22  4  0
 11 20  4  0
 11 21  4  0
 12 23  1  0
 13 20  4  0
 13 29  4  0
 14 17  4  0
 14 28  4  0
 15 25  2  0
 16 27  4  0
 17 18  4  0
 20 27  1  0
 24 27  4  0
 26 28  4  0
M  END
$$$$

 Created by Python create_sdf_string function

 29 33  0  0  0  0  0  0  0  0999 V2000
    8.8270   -7.0288   18.4251 C   0  0  0  0  0  0  0  0  0  0  0  0
    9.1576   -4.6236   15.8860 O   0  0  0  0  0  0  0  0  0  0  0  0
    9.1509   -5.9108   17.7177 C   0  0  0  0  0  0  0  0  0  0  0  0
    3.6373   -9.5349   16.0582 N   0  0  0  0  0  0  0  0  0  0  0  0
    9.9275   -4.8001   18.0438 N   0  0  0  0  0  0  0  0  0  0  0  0
    8.5908   -5.7425   16.4412 C   0  0  0  0  0  0  0  0  0  0  0  0
   10.5993   -4.8981   21.6068 C   0  0  0  0  0  0  0  0  0  0  0  0
   10.4258   -3.0106   23.0998 C   0  0  0  0  0  0  0  0  0  0  0  0
   10.2148   -3.4364   25.4200 C   0  0  0  0  0  0  0  0  0  0  0  0
    9.7853   -1.1840   24.4927 C   0  0  0  0  0  0  0  0  0  0  0  0
    5.0276   -8.5227   17.5352 C   0  0  0  0  0  0  0  0  0  0  0  0
    9.8187   -2.0895   25.5800 C   0  0  0  0  0  0  0  0  0  0  0  0
    5.6473   -8.7216   15.3158 C   0  0  0  0  0  0  0  0  0  0  0  0
   10.7581   -3.1233   19.4720 N   0  0  0  0  0  0  0  0  0  0  0  0
    9.9571   -4.0573   16.8866 C   0  0  0  0  0  0  0  0  0  0  0  0
    7.6213   -6.5618   16.0087 C   0  0  0  0  0  0  0  0  0  0  0  0
   10.8583   -2.6527   20.7222 C   0  0  0  0  0  0  0  0  0  0  0  0
   10.6412   -3.5089   21.7936 C   0  0  0  0  0  0  0  0  0  0  0  0
   10.4972   -3.8968   24.1589 C   0  0  0  0  0  0  0  0  0  0  0  0
    5.9260   -8.2736   16.5517 C   0  0  0  0  0  0  0  0  0  0  0  0
    3.8816   -9.1166   17.2493 C   0  0  0  0  0  0  0  0  0  0  0  0
   10.1297   -1.6575   23.2324 C   0  0  0  0  0  0  0  0  0  0  0  0
    9.4684   -1.6929   26.7263 F   0  0  0  0  0  0  0  0  0  0  0  0
    7.7963   -7.7906   17.9837 C   0  0  0  0  0  0  0  0  0  0  0  0
   10.5884   -3.0725   16.7902 O   0  0  0  0  0  0  0  0  0  0  0  0
   10.4323   -5.3494   20.3516 C   0  0  0  0  0  0  0  0  0  0  0  0
    7.1156   -7.5454   16.8218 C   0  0  0  0  0  0  0  0  0  0  0  0
   10.3885   -4.4388   19.2773 C   0  0  0  0  0  0  0  0  0  0  0  0
    4.5160   -9.3822   15.0841 C   0  0  0  0  0  0  0  0  0  0  0  0
  1  3  4  0
  1 24  4  0
  2  6  4  0
  2 15  4  0
  3  5  4  0
  3  6  4  0
  4 21  4  0
  4 29  4  0
  5 15  4  0
  5 28  1  0
  6 16  4  0
  7 18  4  0
  7 26  4  0
  8 18  1  0
  8 19  4  0
  8 22  4  0
  9 12  4  0
  9 19  4  0
 10 12  4  0
 10 22  4  0
 11 20  4  0
 11 21  4  0
 12 23  1  0
 13 20  4  0
 13 29  4  0
 14 17  4  0
 14 28  4  0
 15 25  2  0
 16 27  4  0
 17 18  4  0
 20 27  1  0
 24 27  4  0
 26 28  4  0
M  END
$$$$

 Created by Python create_sdf_string function

 29 33  0  0  0  0  0  0  0  0999 V2000
    8.8270   -7.0288   18.4251 C   0  0  0  0  0  0  0  0  0  0  0  0
    9.1576   -4.6236   15.8860 O   0  0  0  0  0  0  0  0  0  0  0  0
    9.1509   -5.9108   17.7177 C   0  0  0  0  0  0  0  0  0  0  0  0
    3.6373   -9.5349   16.0582 N   0  0  0  0  0  0  0  0  0  0  0  0
    9.9275   -4.8001   18.0438 N   0  0  0  0  0  0  0  0  0  0  0  0
    8.5908   -5.7425   16.4412 C   0  0  0  0  0  0  0  0  0  0  0  0
   10.5993   -4.8981   21.6068 C   0  0  0  0  0  0  0  0  0  0  0  0
   10.4258   -3.0106   23.0998 C   0  0  0  0  0  0  0  0  0  0  0  0
   10.2148   -3.4364   25.4200 C   0  0  0  0  0  0  0  0  0  0  0  0
    9.7853   -1.1840   24.4927 C   0  0  0  0  0  0  0  0  0  0  0  0
    5.0276   -8.5227   17.5352 C   0  0  0  0  0  0  0  0  0  0  0  0
    9.8187   -2.0895   25.5800 C   0  0  0  0  0  0  0  0  0  0  0  0
    5.6473   -8.7216   15.3158 C   0  0  0  0  0  0  0  0  0  0  0  0
   10.7581   -3.1233   19.4720 N   0  0  0  0  0  0  0  0  0  0  0  0
    9.9571   -4.0573   16.8866 C   0  0  0  0  0  0  0  0  0  0  0  0
    7.6213   -6.5618   16.0087 C   0  0  0  0  0  0  0  0  0  0  0  0
   10.8583   -2.6527   20.7222 C   0  0  0  0  0  0  0  0  0  0  0  0
   10.6412   -3.5089   21.7936 C   0  0  0  0  0  0  0  0  0  0  0  0
   10.4972   -3.8968   24.1589 C   0  0  0  0  0  0  0  0  0  0  0  0
    5.9260   -8.2736   16.5517 C   0  0  0  0  0  0  0  0  0  0  0  0
    3.8816   -9.1166   17.2493 C   0  0  0  0  0  0  0  0  0  0  0  0
   10.1297   -1.6575   23.2324 C   0  0  0  0  0  0  0  0  0  0  0  0
    9.4684   -1.6929   26.7263 F   0  0  0  0  0  0  0  0  0  0  0  0
    7.7963   -7.7906   17.9837 C   0  0  0  0  0  0  0  0  0  0  0  0
   10.5884   -3.0725   16.7902 O   0  0  0  0  0  0  0  0  0  0  0  0
   10.4323   -5.3494   20.3516 C   0  0  0  0  0  0  0  0  0  0  0  0
    7.1156   -7.5454   16.8218 C   0  0  0  0  0  0  0  0  0  0  0  0
   10.3885   -4.4388   19.2773 C   0  0  0  0  0  0  0  0  0  0  0  0
    4.5160   -9.3822   15.0841 C   0  0  0  0  0  0  0  0  0  0  0  0
  1  3  4  0
  1 24  4  0
  2  6  4  0
  2 15  4  0
  3  5  4  0
  3  6  4  0
  4 21  4  0
  4 29  4  0
  5 15  4  0
  5 28  1  0
  6 16  4  0
  7 18  4  0
  7 26  4  0
  8 18  1  0
  8 19  4  0
  8 22  4  0
  9 12  4  0
  9 19  4  0
 10 12  4  0
 10 22  4  0
 11 20  4  0
 11 21  4  0
 12 23  1  0
 13 20  4  0
 13 29  4  0
 14 17  4  0
 14 28  4  0
 15 25  2  0
 16 27  4  0
 17 18  4  0
 20 27  1  0
 24 27  4  0
 26 28  4  0
M  END
$$$$

 Created by Python create_sdf_string function

 29 33  0  0  0  0  0  0  0  0999 V2000
    8.8270   -7.0288   18.4251 C   0  0  0  0  0  0  0  0  0  0  0  0
    9.1576   -4.6236   15.8860 O   0  0  0  0  0  0  0  0  0  0  0  0
    9.1509   -5.9108   17.7177 C   0  0  0  0  0  0  0  0  0  0  0  0
    3.6373   -9.5349   16.0582 N   0  0  0  0  0  0  0  0  0  0  0  0
    9.9275   -4.8001   18.0438 N   0  0  0  0  0  0  0  0  0  0  0  0
    8.5908   -5.7425   16.4412 C   0  0  0  0  0  0  0  0  0  0  0  0
   10.5993   -4.8981   21.6068 C   0  0  0  0  0  0  0  0  0  0  0  0
   10.4258   -3.0106   23.0998 C   0  0  0  0  0  0  0  0  0  0  0  0
   10.2148   -3.4364   25.4200 C   0  0  0  0  0  0  0  0  0  0  0  0
    9.7853   -1.1840   24.4927 C   0  0  0  0  0  0  0  0  0  0  0  0
    5.0276   -8.5227   17.5352 C   0  0  0  0  0  0  0  0  0  0  0  0
    9.8187   -2.0895   25.5800 C   0  0  0  0  0  0  0  0  0  0  0  0
    5.6473   -8.7216   15.3158 C   0  0  0  0  0  0  0  0  0  0  0  0
   10.7581   -3.1233   19.4720 N   0  0  0  0  0  0  0  0  0  0  0  0
    9.9571   -4.0573   16.8866 C   0  0  0  0  0  0  0  0  0  0  0  0
    7.6213   -6.5618   16.0087 C   0  0  0  0  0  0  0  0  0  0  0  0
   10.8583   -2.6527   20.7222 C   0  0  0  0  0  0  0  0  0  0  0  0
   10.6412   -3.5089   21.7936 C   0  0  0  0  0  0  0  0  0  0  0  0
   10.4972   -3.8968   24.1589 C   0  0  0  0  0  0  0  0  0  0  0  0
    5.9260   -8.2736   16.5517 C   0  0  0  0  0  0  0  0  0  0  0  0
    3.8816   -9.1166   17.2493 C   0  0  0  0  0  0  0  0  0  0  0  0
   10.1297   -1.6575   23.2324 C   0  0  0  0  0  0  0  0  0  0  0  0
    9.4684   -1.6929   26.7263 F   0  0  0  0  0  0  0  0  0  0  0  0
    7.7963   -7.7906   17.9837 C   0  0  0  0  0  0  0  0  0  0  0  0
   10.5884   -3.0725   16.7902 O   0  0  0  0  0  0  0  0  0  0  0  0
   10.4323   -5.3494   20.3516 C   0  0  0  0  0  0  0  0  0  0  0  0
    7.1156   -7.5454   16.8218 C   0  0  0  0  0  0  0  0  0  0  0  0
   10.3885   -4.4388   19.2773 C   0  0  0  0  0  0  0  0  0  0  0  0
    4.5160   -9.3822   15.0841 C   0  0  0  0  0  0  0  0  0  0  0  0
  1  3  4  0
  1 24  4  0
  2  6  4  0
  2 15  4  0
  3  5  4  0
  3  6  4  0
  4 21  4  0
  4 29  4  0
  5 15  4  0
  5 28  1  0
  6 16  4  0
  7 18  4  0
  7 26  4  0
  8 18  1  0
  8 19  4  0
  8 22  4  0
  9 12  4  0
  9 19  4  0
 10 12  4  0
 10 22  4  0
 11 20  4  0
 11 21  4  0
 12 23  1  0
 13 20  4  0
 13 29  4  0
 14 17  4  0
 14 28  4  0
 15 25  2  0
 16 27  4  0
 17 18  4  0
 20 27  1  0
 24 27  4  0
 26 28  4  0
M  END
$$$$

 Created by Python create_sdf_string function

 29 33  0  0  0  0  0  0  0  0999 V2000
    8.8270   -7.0288   18.4251 C   0  0  0  0  0  0  0  0  0  0  0  0
    9.1576   -4.6236   15.8860 O   0  0  0  0  0  0  0  0  0  0  0  0
    9.1509   -5.9108   17.7177 C   0  0  0  0  0  0  0  0  0  0  0  0
    3.6373   -9.5349   16.0582 N   0  0  0  0  0  0  0  0  0  0  0  0
    9.9275   -4.8001   18.0438 N   0  0  0  0  0  0  0  0  0  0  0  0
    8.5908   -5.7425   16.4412 C   0  0  0  0  0  0  0  0  0  0  0  0
   10.5993   -4.8981   21.6068 C   0  0  0  0  0  0  0  0  0  0  0  0
   10.4258   -3.0106   23.0998 C   0  0  0  0  0  0  0  0  0  0  0  0
   10.2148   -3.4364   25.4200 C   0  0  0  0  0  0  0  0  0  0  0  0
    9.7853   -1.1840   24.4927 C   0  0  0  0  0  0  0  0  0  0  0  0
    5.0276   -8.5227   17.5352 C   0  0  0  0  0  0  0  0  0  0  0  0
    9.8187   -2.0895   25.5800 C   0  0  0  0  0  0  0  0  0  0  0  0
    5.6473   -8.7216   15.3158 C   0  0  0  0  0  0  0  0  0  0  0  0
   10.7581   -3.1233   19.4720 N   0  0  0  0  0  0  0  0  0  0  0  0
    9.9571   -4.0573   16.8866 C   0  0  0  0  0  0  0  0  0  0  0  0
    7.6213   -6.5618   16.0087 C   0  0  0  0  0  0  0  0  0  0  0  0
   10.8583   -2.6527   20.7222 C   0  0  0  0  0  0  0  0  0  0  0  0
   10.6412   -3.5089   21.7936 C   0  0  0  0  0  0  0  0  0  0  0  0
   10.4972   -3.8968   24.1589 C   0  0  0  0  0  0  0  0  0  0  0  0
    5.9260   -8.2736   16.5517 C   0  0  0  0  0  0  0  0  0  0  0  0
    3.8816   -9.1166   17.2493 C   0  0  0  0  0  0  0  0  0  0  0  0
   10.1297   -1.6575   23.2324 C   0  0  0  0  0  0  0  0  0  0  0  0
    9.4684   -1.6929   26.7263 F   0  0  0  0  0  0  0  0  0  0  0  0
    7.7963   -7.7906   17.9837 C   0  0  0  0  0  0  0  0  0  0  0  0
   10.5884   -3.0725   16.7902 O   0  0  0  0  0  0  0  0  0  0  0  0
   10.4323   -5.3494   20.3516 C   0  0  0  0  0  0  0  0  0  0  0  0
    7.1156   -7.5454   16.8218 C   0  0  0  0  0  0  0  0  0  0  0  0
   10.3885   -4.4388   19.2773 C   0  0  0  0  0  0  0  0  0  0  0  0
    4.5160   -9.3822   15.0841 C   0  0  0  0  0  0  0  0  0  0  0  0
  1  3  4  0
  1 24  4  0
  2  6  4  0
  2 15  4  0
  3  5  4  0
  3  6  4  0
  4 21  4  0
  4 29  4  0
  5 15  4  0
  5 28  1  0
  6 16  4  0
  7 18  4  0
  7 26  4  0
  8 18  1  0
  8 19  4  0
  8 22  4  0
  9 12  4  0
  9 19  4  0
 10 12  4  0
 10 22  4  0
 11 20  4  0
 11 21  4  0
 12 23  1  0
 13 20  4  0
 13 29  4  0
 14 17  4  0
 14 28  4  0
 15 25  2  0
 16 27  4  0
 17 18  4  0
 20 27  1  0
 24 27  4  0
 26 28  4  0
M  END
$$$$

 Created by Python create_sdf_string function

 29 33  0  0  0  0  0  0  0  0999 V2000
    8.8270   -7.0288   18.4251 C   0  0  0  0  0  0  0  0  0  0  0  0
    9.1576   -4.6236   15.8860 O   0  0  0  0  0  0  0  0  0  0  0  0
    9.1509   -5.9108   17.7177 C   0  0  0  0  0  0  0  0  0  0  0  0
    3.6373   -9.5349   16.0582 N   0  0  0  0  0  0  0  0  0  0  0  0
    9.9275   -4.8001   18.0438 N   0  0  0  0  0  0  0  0  0  0  0  0
    8.5908   -5.7425   16.4412 C   0  0  0  0  0  0  0  0  0  0  0  0
   10.5993   -4.8981   21.6068 C   0  0  0  0  0  0  0  0  0  0  0  0
   10.4258   -3.0106   23.0998 C   0  0  0  0  0  0  0  0  0  0  0  0
   10.2148   -3.4364   25.4200 C   0  0  0  0  0  0  0  0  0  0  0  0
    9.7853   -1.1840   24.4927 C   0  0  0  0  0  0  0  0  0  0  0  0
    5.0276   -8.5227   17.5352 C   0  0  0  0  0  0  0  0  0  0  0  0
    9.8187   -2.0895   25.5800 C   0  0  0  0  0  0  0  0  0  0  0  0
    5.6473   -8.7216   15.3158 C   0  0  0  0  0  0  0  0  0  0  0  0
   10.7581   -3.1233   19.4720 N   0  0  0  0  0  0  0  0  0  0  0  0
    9.9571   -4.0573   16.8866 C   0  0  0  0  0  0  0  0  0  0  0  0
    7.6213   -6.5618   16.0087 C   0  0  0  0  0  0  0  0  0  0  0  0
   10.8583   -2.6527   20.7222 C   0  0  0  0  0  0  0  0  0  0  0  0
   10.6412   -3.5089   21.7936 C   0  0  0  0  0  0  0  0  0  0  0  0
   10.4972   -3.8968   24.1589 C   0  0  0  0  0  0  0  0  0  0  0  0
    5.9260   -8.2736   16.5517 C   0  0  0  0  0  0  0  0  0  0  0  0
    3.8816   -9.1166   17.2493 C   0  0  0  0  0  0  0  0  0  0  0  0
   10.1297   -1.6575   23.2324 C   0  0  0  0  0  0  0  0  0  0  0  0
    9.4684   -1.6929   26.7263 F   0  0  0  0  0  0  0  0  0  0  0  0
    7.7963   -7.7906   17.9837 C   0  0  0  0  0  0  0  0  0  0  0  0
   10.5884   -3.0725   16.7902 O   0  0  0  0  0  0  0  0  0  0  0  0
   10.4323   -5.3494   20.3516 C   0  0  0  0  0  0  0  0  0  0  0  0
    7.1156   -7.5454   16.8218 C   0  0  0  0  0  0  0  0  0  0  0  0
   10.3885   -4.4388   19.2773 C   0  0  0  0  0  0  0  0  0  0  0  0
    4.5160   -9.3822   15.0841 C   0  0  0  0  0  0  0  0  0  0  0  0
  1  3  4  0
  1 24  4  0
  2  6  4  0
  2 15  4  0
  3  5  4  0
  3  6  4  0
  4 21  4  0
  4 29  4  0
  5 15  4  0
  5 28  1  0
  6 16  4  0
  7 18  4  0
  7 26  4  0
  8 18  1  0
  8 19  4  0
  8 22  4  0
  9 12  4  0
  9 19  4  0
 10 12  4  0
 10 22  4  0
 11 20  4  0
 11 21  4  0
 12 23  1  0
 13 20  4  0
 13 29  4  0
 14 17  4  0
 14 28  4  0
 15 25  2  0
 16 27  4  0
 17 18  4  0
 20 27  1  0
 24 27  4  0
 26 28  4  0
M  END
$$$$

 Created by Python create_sdf_string function

 29 33  0  0  0  0  0  0  0  0999 V2000
    8.8270   -7.0288   18.4251 C   0  0  0  0  0  0  0  0  0  0  0  0
    9.1576   -4.6236   15.8860 O   0  0  0  0  0  0  0  0  0  0  0  0
    9.1509   -5.9108   17.7177 C   0  0  0  0  0  0  0  0  0  0  0  0
    3.6373   -9.5349   16.0582 N   0  0  0  0  0  0  0  0  0  0  0  0
    9.9275   -4.8001   18.0438 N   0  0  0  0  0  0  0  0  0  0  0  0
    8.5908   -5.7425   16.4412 C   0  0  0  0  0  0  0  0  0  0  0  0
   10.5993   -4.8981   21.6068 C   0  0  0  0  0  0  0  0  0  0  0  0
   10.4258   -3.0106   23.0998 C   0  0  0  0  0  0  0  0  0  0  0  0
   10.2148   -3.4364   25.4200 C   0  0  0  0  0  0  0  0  0  0  0  0
    9.7853   -1.1840   24.4927 C   0  0  0  0  0  0  0  0  0  0  0  0
    5.0276   -8.5227   17.5352 C   0  0  0  0  0  0  0  0  0  0  0  0
    9.8187   -2.0895   25.5800 C   0  0  0  0  0  0  0  0  0  0  0  0
    5.6473   -8.7216   15.3158 C   0  0  0  0  0  0  0  0  0  0  0  0
   10.7581   -3.1233   19.4720 N   0  0  0  0  0  0  0  0  0  0  0  0
    9.9571   -4.0573   16.8866 C   0  0  0  0  0  0  0  0  0  0  0  0
    7.6213   -6.5618   16.0087 C   0  0  0  0  0  0  0  0  0  0  0  0
   10.8583   -2.6527   20.7222 C   0  0  0  0  0  0  0  0  0  0  0  0
   10.6412   -3.5089   21.7936 C   0  0  0  0  0  0  0  0  0  0  0  0
   10.4972   -3.8968   24.1589 C   0  0  0  0  0  0  0  0  0  0  0  0
    5.9260   -8.2736   16.5517 C   0  0  0  0  0  0  0  0  0  0  0  0
    3.8816   -9.1166   17.2493 C   0  0  0  0  0  0  0  0  0  0  0  0
   10.1297   -1.6575   23.2324 C   0  0  0  0  0  0  0  0  0  0  0  0
    9.4684   -1.6929   26.7263 F   0  0  0  0  0  0  0  0  0  0  0  0
    7.7963   -7.7906   17.9837 C   0  0  0  0  0  0  0  0  0  0  0  0
   10.5884   -3.0725   16.7902 O   0  0  0  0  0  0  0  0  0  0  0  0
   10.4323   -5.3494   20.3516 C   0  0  0  0  0  0  0  0  0  0  0  0
    7.1156   -7.5454   16.8218 C   0  0  0  0  0  0  0  0  0  0  0  0
   10.3885   -4.4388   19.2773 C   0  0  0  0  0  0  0  0  0  0  0  0
    4.5160   -9.3822   15.0841 C   0  0  0  0  0  0  0  0  0  0  0  0
  1  3  4  0
  1 24  4  0
  2  6  4  0
  2 15  4  0
  3  5  4  0
  3  6  4  0
  4 21  4  0
  4 29  4  0
  5 15  4  0
  5 28  1  0
  6 16  4  0
  7 18  4  0
  7 26  4  0
  8 18  1  0
  8 19  4  0
  8 22  4  0
  9 12  4  0
  9 19  4  0
 10 12  4  0
 10 22  4  0
 11 20  4  0
 11 21  4  0
 12 23  1  0
 13 20  4  0
 13 29  4  0
 14 17  4  0
 14 28  4  0
 15 25  2  0
 16 27  4  0
 17 18  4  0
 20 27  1  0
 24 27  4  0
 26 28  4  0
M  END
$$$$

 Created by Python create_sdf_string function

 29 33  0  0  0  0  0  0  0  0999 V2000
    8.8270   -7.0288   18.4251 C   0  0  0  0  0  0  0  0  0  0  0  0
    9.1576   -4.6236   15.8860 O   0  0  0  0  0  0  0  0  0  0  0  0
    9.1509   -5.9108   17.7177 C   0  0  0  0  0  0  0  0  0  0  0  0
    3.6373   -9.5349   16.0582 N   0  0  0  0  0  0  0  0  0  0  0  0
    9.9275   -4.8001   18.0438 N   0  0  0  0  0  0  0  0  0  0  0  0
    8.5908   -5.7425   16.4412 C   0  0  0  0  0  0  0  0  0  0  0  0
   10.5993   -4.8981   21.6068 C   0  0  0  0  0  0  0  0  0  0  0  0
   10.4258   -3.0106   23.0998 C   0  0  0  0  0  0  0  0  0  0  0  0
   10.2148   -3.4364   25.4200 C   0  0  0  0  0  0  0  0  0  0  0  0
    9.7853   -1.1840   24.4927 C   0  0  0  0  0  0  0  0  0  0  0  0
    5.0276   -8.5227   17.5352 C   0  0  0  0  0  0  0  0  0  0  0  0
    9.8187   -2.0895   25.5800 C   0  0  0  0  0  0  0  0  0  0  0  0
    5.6473   -8.7216   15.3158 C   0  0  0  0  0  0  0  0  0  0  0  0
   10.7581   -3.1233   19.4720 N   0  0  0  0  0  0  0  0  0  0  0  0
    9.9571   -4.0573   16.8866 C   0  0  0  0  0  0  0  0  0  0  0  0
    7.6213   -6.5618   16.0087 C   0  0  0  0  0  0  0  0  0  0  0  0
   10.8583   -2.6527   20.7222 C   0  0  0  0  0  0  0  0  0  0  0  0
   10.6412   -3.5089   21.7936 C   0  0  0  0  0  0  0  0  0  0  0  0
   10.4972   -3.8968   24.1589 C   0  0  0  0  0  0  0  0  0  0  0  0
    5.9260   -8.2736   16.5517 C   0  0  0  0  0  0  0  0  0  0  0  0
    3.8816   -9.1166   17.2493 C   0  0  0  0  0  0  0  0  0  0  0  0
   10.1297   -1.6575   23.2324 C   0  0  0  0  0  0  0  0  0  0  0  0
    9.4684   -1.6929   26.7263 F   0  0  0  0  0  0  0  0  0  0  0  0
    7.7963   -7.7906   17.9837 C   0  0  0  0  0  0  0  0  0  0  0  0
   10.5884   -3.0725   16.7902 O   0  0  0  0  0  0  0  0  0  0  0  0
   10.4323   -5.3494   20.3516 C   0  0  0  0  0  0  0  0  0  0  0  0
    7.1156   -7.5454   16.8218 C   0  0  0  0  0  0  0  0  0  0  0  0
   10.3885   -4.4388   19.2773 C   0  0  0  0  0  0  0  0  0  0  0  0
    4.5160   -9.3822   15.0841 C   0  0  0  0  0  0  0  0  0  0  0  0
  1  3  4  0
  1 24  4  0
  2  6  4  0
  2 15  4  0
  3  5  4  0
  3  6  4  0
  4 21  4  0
  4 29  4  0
  5 15  4  0
  5 28  1  0
  6 16  4  0
  7 18  4  0
  7 26  4  0
  8 18  1  0
  8 19  4  0
  8 22  4  0
  9 12  4  0
  9 19  4  0
 10 12  4  0
 10 22  4  0
 11 20  4  0
 11 21  4  0
 12 23  1  0
 13 20  4  0
 13 29  4  0
 14 17  4  0
 14 28  4  0
 15 25  2  0
 16 27  4  0
 17 18  4  0
 20 27  1  0
 24 27  4  0
 26 28  4  0
M  END
$$$$

 Created by Python create_sdf_string function

 29 33  0  0  0  0  0  0  0  0999 V2000
    8.8270   -7.0288   18.4251 C   0  0  0  0  0  0  0  0  0  0  0  0
    9.1576   -4.6236   15.8860 O   0  0  0  0  0  0  0  0  0  0  0  0
    9.1509   -5.9108   17.7177 C   0  0  0  0  0  0  0  0  0  0  0  0
    3.6373   -9.5349   16.0582 N   0  0  0  0  0  0  0  0  0  0  0  0
    9.9275   -4.8001   18.0438 N   0  0  0  0  0  0  0  0  0  0  0  0
    8.5908   -5.7425   16.4412 C   0  0  0  0  0  0  0  0  0  0  0  0
   10.5993   -4.8981   21.6068 C   0  0  0  0  0  0  0  0  0  0  0  0
   10.4258   -3.0106   23.0998 C   0  0  0  0  0  0  0  0  0  0  0  0
   10.2148   -3.4364   25.4200 C   0  0  0  0  0  0  0  0  0  0  0  0
    9.7853   -1.1840   24.4927 C   0  0  0  0  0  0  0  0  0  0  0  0
    5.0276   -8.5227   17.5352 C   0  0  0  0  0  0  0  0  0  0  0  0
    9.8187   -2.0895   25.5800 C   0  0  0  0  0  0  0  0  0  0  0  0
    5.6473   -8.7216   15.3158 C   0  0  0  0  0  0  0  0  0  0  0  0
   10.7581   -3.1233   19.4720 N   0  0  0  0  0  0  0  0  0  0  0  0
    9.9571   -4.0573   16.8866 C   0  0  0  0  0  0  0  0  0  0  0  0
    7.6213   -6.5618   16.0087 C   0  0  0  0  0  0  0  0  0  0  0  0
   10.8583   -2.6527   20.7222 C   0  0  0  0  0  0  0  0  0  0  0  0
   10.6412   -3.5089   21.7936 C   0  0  0  0  0  0  0  0  0  0  0  0
   10.4972   -3.8968   24.1589 C   0  0  0  0  0  0  0  0  0  0  0  0
    5.9260   -8.2736   16.5517 C   0  0  0  0  0  0  0  0  0  0  0  0
    3.8816   -9.1166   17.2493 C   0  0  0  0  0  0  0  0  0  0  0  0
   10.1297   -1.6575   23.2324 C   0  0  0  0  0  0  0  0  0  0  0  0
    9.4684   -1.6929   26.7263 F   0  0  0  0  0  0  0  0  0  0  0  0
    7.7963   -7.7906   17.9837 C   0  0  0  0  0  0  0  0  0  0  0  0
   10.5884   -3.0725   16.7902 O   0  0  0  0  0  0  0  0  0  0  0  0
   10.4323   -5.3494   20.3516 C   0  0  0  0  0  0  0  0  0  0  0  0
    7.1156   -7.5454   16.8218 C   0  0  0  0  0  0  0  0  0  0  0  0
   10.3885   -4.4388   19.2773 C   0  0  0  0  0  0  0  0  0  0  0  0
    4.5160   -9.3822   15.0841 C   0  0  0  0  0  0  0  0  0  0  0  0
  1  3  4  0
  1 24  4  0
  2  6  4  0
  2 15  4  0
  3  5  4  0
  3  6  4  0
  4 21  4  0
  4 29  4  0
  5 15  4  0
  5 28  1  0
  6 16  4  0
  7 18  4  0
  7 26  4  0
  8 18  1  0
  8 19  4  0
  8 22  4  0
  9 12  4  0
  9 19  4  0
 10 12  4  0
 10 22  4  0
 11 20  4  0
 11 21  4  0
 12 23  1  0
 13 20  4  0
 13 29  4  0
 14 17  4  0
 14 28  4  0
 15 25  2  0
 16 27  4  0
 17 18  4  0
 20 27  1  0
 24 27  4  0
 26 28  4  0
M  END
$$$$

 Created by Python create_sdf_string function

 29 33  0  0  0  0  0  0  0  0999 V2000
    8.8270   -7.0288   18.4251 C   0  0  0  0  0  0  0  0  0  0  0  0
    9.1576   -4.6236   15.8860 O   0  0  0  0  0  0  0  0  0  0  0  0
    9.1509   -5.9108   17.7177 C   0  0  0  0  0  0  0  0  0  0  0  0
    3.6373   -9.5349   16.0582 N   0  0  0  0  0  0  0  0  0  0  0  0
    9.9275   -4.8001   18.0438 N   0  0  0  0  0  0  0  0  0  0  0  0
    8.5908   -5.7425   16.4412 C   0  0  0  0  0  0  0  0  0  0  0  0
   10.5993   -4.8981   21.6068 C   0  0  0  0  0  0  0  0  0  0  0  0
   10.4258   -3.0106   23.0998 C   0  0  0  0  0  0  0  0  0  0  0  0
   10.2148   -3.4364   25.4200 C   0  0  0  0  0  0  0  0  0  0  0  0
    9.7853   -1.1840   24.4927 C   0  0  0  0  0  0  0  0  0  0  0  0
    5.0276   -8.5227   17.5352 C   0  0  0  0  0  0  0  0  0  0  0  0
    9.8187   -2.0895   25.5800 C   0  0  0  0  0  0  0  0  0  0  0  0
    5.6473   -8.7216   15.3158 C   0  0  0  0  0  0  0  0  0  0  0  0
   10.7581   -3.1233   19.4720 N   0  0  0  0  0  0  0  0  0  0  0  0
    9.9571   -4.0573   16.8866 C   0  0  0  0  0  0  0  0  0  0  0  0
    7.6213   -6.5618   16.0087 C   0  0  0  0  0  0  0  0  0  0  0  0
   10.8583   -2.6527   20.7222 C   0  0  0  0  0  0  0  0  0  0  0  0
   10.6412   -3.5089   21.7936 C   0  0  0  0  0  0  0  0  0  0  0  0
   10.4972   -3.8968   24.1589 C   0  0  0  0  0  0  0  0  0  0  0  0
    5.9260   -8.2736   16.5517 C   0  0  0  0  0  0  0  0  0  0  0  0
    3.8816   -9.1166   17.2493 C   0  0  0  0  0  0  0  0  0  0  0  0
   10.1297   -1.6575   23.2324 C   0  0  0  0  0  0  0  0  0  0  0  0
    9.4684   -1.6929   26.7263 F   0  0  0  0  0  0  0  0  0  0  0  0
    7.7963   -7.7906   17.9837 C   0  0  0  0  0  0  0  0  0  0  0  0
   10.5884   -3.0725   16.7902 O   0  0  0  0  0  0  0  0  0  0  0  0
   10.4323   -5.3494   20.3516 C   0  0  0  0  0  0  0  0  0  0  0  0
    7.1156   -7.5454   16.8218 C   0  0  0  0  0  0  0  0  0  0  0  0
   10.3885   -4.4388   19.2773 C   0  0  0  0  0  0  0  0  0  0  0  0
    4.5160   -9.3822   15.0841 C   0  0  0  0  0  0  0  0  0  0  0  0
  1  3  4  0
  1 24  4  0
  2  6  4  0
  2 15  4  0
  3  5  4  0
  3  6  4  0
  4 21  4  0
  4 29  4  0
  5 15  4  0
  5 28  1  0
  6 16  4  0
  7 18  4  0
  7 26  4  0
  8 18  1  0
  8 19  4  0
  8 22  4  0
  9 12  4  0
  9 19  4  0
 10 12  4  0
 10 22  4  0
 11 20  4  0
 11 21  4  0
 12 23  1  0
 13 20  4  0
 13 29  4  0
 14 17  4  0
 14 28  4  0
 15 25  2  0
 16 27  4  0
 17 18  4  0
 20 27  1  0
 24 27  4  0
 26 28  4  0
M  END
$$$$

 Created by Python create_sdf_string function

 29 33  0  0  0  0  0  0  0  0999 V2000
    8.8270   -7.0288   18.4251 C   0  0  0  0  0  0  0  0  0  0  0  0
    9.1576   -4.6236   15.8860 O   0  0  0  0  0  0  0  0  0  0  0  0
    9.1509   -5.9108   17.7177 C   0  0  0  0  0  0  0  0  0  0  0  0
    3.6373   -9.5349   16.0582 N   0  0  0  0  0  0  0  0  0  0  0  0
    9.9275   -4.8001   18.0438 N   0  0  0  0  0  0  0  0  0  0  0  0
    8.5908   -5.7425   16.4412 C   0  0  0  0  0  0  0  0  0  0  0  0
   10.5993   -4.8981   21.6068 C   0  0  0  0  0  0  0  0  0  0  0  0
   10.4258   -3.0106   23.0998 C   0  0  0  0  0  0  0  0  0  0  0  0
   10.2148   -3.4364   25.4200 C   0  0  0  0  0  0  0  0  0  0  0  0
    9.7853   -1.1840   24.4927 C   0  0  0  0  0  0  0  0  0  0  0  0
    5.0276   -8.5227   17.5352 C   0  0  0  0  0  0  0  0  0  0  0  0
    9.8187   -2.0895   25.5800 C   0  0  0  0  0  0  0  0  0  0  0  0
    5.6473   -8.7216   15.3158 C   0  0  0  0  0  0  0  0  0  0  0  0
   10.7581   -3.1233   19.4720 N   0  0  0  0  0  0  0  0  0  0  0  0
    9.9571   -4.0573   16.8866 C   0  0  0  0  0  0  0  0  0  0  0  0
    7.6213   -6.5618   16.0087 C   0  0  0  0  0  0  0  0  0  0  0  0
   10.8583   -2.6527   20.7222 C   0  0  0  0  0  0  0  0  0  0  0  0
   10.6412   -3.5089   21.7936 C   0  0  0  0  0  0  0  0  0  0  0  0
   10.4972   -3.8968   24.1589 C   0  0  0  0  0  0  0  0  0  0  0  0
    5.9260   -8.2736   16.5517 C   0  0  0  0  0  0  0  0  0  0  0  0
    3.8816   -9.1166   17.2493 C   0  0  0  0  0  0  0  0  0  0  0  0
   10.1297   -1.6575   23.2324 C   0  0  0  0  0  0  0  0  0  0  0  0
    9.4684   -1.6929   26.7263 F   0  0  0  0  0  0  0  0  0  0  0  0
    7.7963   -7.7906   17.9837 C   0  0  0  0  0  0  0  0  0  0  0  0
   10.5884   -3.0725   16.7902 O   0  0  0  0  0  0  0  0  0  0  0  0
   10.4323   -5.3494   20.3516 C   0  0  0  0  0  0  0  0  0  0  0  0
    7.1156   -7.5454   16.8218 C   0  0  0  0  0  0  0  0  0  0  0  0
   10.3885   -4.4388   19.2773 C   0  0  0  0  0  0  0  0  0  0  0  0
    4.5160   -9.3822   15.0841 C   0  0  0  0  0  0  0  0  0  0  0  0
  1  3  4  0
  1 24  4  0
  2  6  4  0
  2 15  4  0
  3  5  4  0
  3  6  4  0
  4 21  4  0
  4 29  4  0
  5 15  4  0
  5 28  1  0
  6 16  4  0
  7 18  4  0
  7 26  4  0
  8 18  1  0
  8 19  4  0
  8 22  4  0
  9 12  4  0
  9 19  4  0
 10 12  4  0
 10 22  4  0
 11 20  4  0
 11 21  4  0
 12 23  1  0
 13 20  4  0
 13 29  4  0
 14 17  4  0
 14 28  4  0
 15 25  2  0
 16 27  4  0
 17 18  4  0
 20 27  1  0
 24 27  4  0
 26 28  4  0
M  END
$$$$

 Created by Python create_sdf_string function

 29 33  0  0  0  0  0  0  0  0999 V2000
    8.8270   -7.0288   18.4251 C   0  0  0  0  0  0  0  0  0  0  0  0
    9.1576   -4.6236   15.8860 O   0  0  0  0  0  0  0  0  0  0  0  0
    9.1509   -5.9108   17.7177 C   0  0  0  0  0  0  0  0  0  0  0  0
    3.6373   -9.5349   16.0582 N   0  0  0  0  0  0  0  0  0  0  0  0
    9.9275   -4.8001   18.0438 N   0  0  0  0  0  0  0  0  0  0  0  0
    8.5908   -5.7425   16.4412 C   0  0  0  0  0  0  0  0  0  0  0  0
   10.5993   -4.8981   21.6068 C   0  0  0  0  0  0  0  0  0  0  0  0
   10.4258   -3.0106   23.0998 C   0  0  0  0  0  0  0  0  0  0  0  0
   10.2148   -3.4364   25.4200 C   0  0  0  0  0  0  0  0  0  0  0  0
    9.7853   -1.1840   24.4927 C   0  0  0  0  0  0  0  0  0  0  0  0
    5.0276   -8.5227   17.5352 C   0  0  0  0  0  0  0  0  0  0  0  0
    9.8187   -2.0895   25.5800 C   0  0  0  0  0  0  0  0  0  0  0  0
    5.6473   -8.7216   15.3158 C   0  0  0  0  0  0  0  0  0  0  0  0
   10.7581   -3.1233   19.4720 N   0  0  0  0  0  0  0  0  0  0  0  0
    9.9571   -4.0573   16.8866 C   0  0  0  0  0  0  0  0  0  0  0  0
    7.6213   -6.5618   16.0087 C   0  0  0  0  0  0  0  0  0  0  0  0
   10.8583   -2.6527   20.7222 C   0  0  0  0  0  0  0  0  0  0  0  0
   10.6412   -3.5089   21.7936 C   0  0  0  0  0  0  0  0  0  0  0  0
   10.4972   -3.8968   24.1589 C   0  0  0  0  0  0  0  0  0  0  0  0
    5.9260   -8.2736   16.5517 C   0  0  0  0  0  0  0  0  0  0  0  0
    3.8816   -9.1166   17.2493 C   0  0  0  0  0  0  0  0  0  0  0  0
   10.1297   -1.6575   23.2324 C   0  0  0  0  0  0  0  0  0  0  0  0
    9.4684   -1.6929   26.7263 F   0  0  0  0  0  0  0  0  0  0  0  0
    7.7963   -7.7906   17.9837 C   0  0  0  0  0  0  0  0  0  0  0  0
   10.5884   -3.0725   16.7902 O   0  0  0  0  0  0  0  0  0  0  0  0
   10.4323   -5.3494   20.3516 C   0  0  0  0  0  0  0  0  0  0  0  0
    7.1156   -7.5454   16.8218 C   0  0  0  0  0  0  0  0  0  0  0  0
   10.3885   -4.4388   19.2773 C   0  0  0  0  0  0  0  0  0  0  0  0
    4.5160   -9.3822   15.0841 C   0  0  0  0  0  0  0  0  0  0  0  0
  1  3  4  0
  1 24  4  0
  2  6  4  0
  2 15  4  0
  3  5  4  0
  3  6  4  0
  4 21  4  0
  4 29  4  0
  5 15  4  0
  5 28  1  0
  6 16  4  0
  7 18  4  0
  7 26  4  0
  8 18  1  0
  8 19  4  0
  8 22  4  0
  9 12  4  0
  9 19  4  0
 10 12  4  0
 10 22  4  0
 11 20  4  0
 11 21  4  0
 12 23  1  0
 13 20  4  0
 13 29  4  0
 14 17  4  0
 14 28  4  0
 15 25  2  0
 16 27  4  0
 17 18  4  0
 20 27  1  0
 24 27  4  0
 26 28  4  0
M  END
$$$$

 Created by Python create_sdf_string function

 29 33  0  0  0  0  0  0  0  0999 V2000
    8.8270   -7.0288   18.4251 C   0  0  0  0  0  0  0  0  0  0  0  0
    9.1576   -4.6236   15.8860 O   0  0  0  0  0  0  0  0  0  0  0  0
    9.1509   -5.9108   17.7177 C   0  0  0  0  0  0  0  0  0  0  0  0
    3.6373   -9.5349   16.0582 N   0  0  0  0  0  0  0  0  0  0  0  0
    9.9275   -4.8001   18.0438 N   0  0  0  0  0  0  0  0  0  0  0  0
    8.5908   -5.7425   16.4412 C   0  0  0  0  0  0  0  0  0  0  0  0
   10.5993   -4.8981   21.6068 C   0  0  0  0  0  0  0  0  0  0  0  0
   10.4258   -3.0106   23.0998 C   0  0  0  0  0  0  0  0  0  0  0  0
   10.2148   -3.4364   25.4200 C   0  0  0  0  0  0  0  0  0  0  0  0
    9.7853   -1.1840   24.4927 C   0  0  0  0  0  0  0  0  0  0  0  0
    5.0276   -8.5227   17.5352 C   0  0  0  0  0  0  0  0  0  0  0  0
    9.8187   -2.0895   25.5800 C   0  0  0  0  0  0  0  0  0  0  0  0
    5.6473   -8.7216   15.3158 C   0  0  0  0  0  0  0  0  0  0  0  0
   10.7581   -3.1233   19.4720 N   0  0  0  0  0  0  0  0  0  0  0  0
    9.9571   -4.0573   16.8866 C   0  0  0  0  0  0  0  0  0  0  0  0
    7.6213   -6.5618   16.0087 C   0  0  0  0  0  0  0  0  0  0  0  0
   10.8583   -2.6527   20.7222 C   0  0  0  0  0  0  0  0  0  0  0  0
   10.6412   -3.5089   21.7936 C   0  0  0  0  0  0  0  0  0  0  0  0
   10.4972   -3.8968   24.1589 C   0  0  0  0  0  0  0  0  0  0  0  0
    5.9260   -8.2736   16.5517 C   0  0  0  0  0  0  0  0  0  0  0  0
    3.8816   -9.1166   17.2493 C   0  0  0  0  0  0  0  0  0  0  0  0
   10.1297   -1.6575   23.2324 C   0  0  0  0  0  0  0  0  0  0  0  0
    9.4684   -1.6929   26.7263 F   0  0  0  0  0  0  0  0  0  0  0  0
    7.7963   -7.7906   17.9837 C   0  0  0  0  0  0  0  0  0  0  0  0
   10.5884   -3.0725   16.7902 O   0  0  0  0  0  0  0  0  0  0  0  0
   10.4323   -5.3494   20.3516 C   0  0  0  0  0  0  0  0  0  0  0  0
    7.1156   -7.5454   16.8218 C   0  0  0  0  0  0  0  0  0  0  0  0
   10.3885   -4.4388   19.2773 C   0  0  0  0  0  0  0  0  0  0  0  0
    4.5160   -9.3822   15.0841 C   0  0  0  0  0  0  0  0  0  0  0  0
  1  3  4  0
  1 24  4  0
  2  6  4  0
  2 15  4  0
  3  5  4  0
  3  6  4  0
  4 21  4  0
  4 29  4  0
  5 15  4  0
  5 28  1  0
  6 16  4  0
  7 18  4  0
  7 26  4  0
  8 18  1  0
  8 19  4  0
  8 22  4  0
  9 12  4  0
  9 19  4  0
 10 12  4  0
 10 22  4  0
 11 20  4  0
 11 21  4  0
 12 23  1  0
 13 20  4  0
 13 29  4  0
 14 17  4  0
 14 28  4  0
 15 25  2  0
 16 27  4  0
 17 18  4  0
 20 27  1  0
 24 27  4  0
 26 28  4  0
M  END
$$$$

 Created by Python create_sdf_string function

 29 33  0  0  0  0  0  0  0  0999 V2000
    8.8270   -7.0288   18.4251 C   0  0  0  0  0  0  0  0  0  0  0  0
    9.1576   -4.6236   15.8860 O   0  0  0  0  0  0  0  0  0  0  0  0
    9.1509   -5.9108   17.7177 C   0  0  0  0  0  0  0  0  0  0  0  0
    3.6373   -9.5349   16.0582 N   0  0  0  0  0  0  0  0  0  0  0  0
    9.9275   -4.8001   18.0438 N   0  0  0  0  0  0  0  0  0  0  0  0
    8.5908   -5.7425   16.4412 C   0  0  0  0  0  0  0  0  0  0  0  0
   10.5993   -4.8981   21.6068 C   0  0  0  0  0  0  0  0  0  0  0  0
   10.4258   -3.0106   23.0998 C   0  0  0  0  0  0  0  0  0  0  0  0
   10.2148   -3.4364   25.4200 C   0  0  0  0  0  0  0  0  0  0  0  0
    9.7853   -1.1840   24.4927 C   0  0  0  0  0  0  0  0  0  0  0  0
    5.0276   -8.5227   17.5352 C   0  0  0  0  0  0  0  0  0  0  0  0
    9.8187   -2.0895   25.5800 C   0  0  0  0  0  0  0  0  0  0  0  0
    5.6473   -8.7216   15.3158 C   0  0  0  0  0  0  0  0  0  0  0  0
   10.7581   -3.1233   19.4720 N   0  0  0  0  0  0  0  0  0  0  0  0
    9.9571   -4.0573   16.8866 C   0  0  0  0  0  0  0  0  0  0  0  0
    7.6213   -6.5618   16.0087 C   0  0  0  0  0  0  0  0  0  0  0  0
   10.8583   -2.6527   20.7222 C   0  0  0  0  0  0  0  0  0  0  0  0
   10.6412   -3.5089   21.7936 C   0  0  0  0  0  0  0  0  0  0  0  0
   10.4972   -3.8968   24.1589 C   0  0  0  0  0  0  0  0  0  0  0  0
    5.9260   -8.2736   16.5517 C   0  0  0  0  0  0  0  0  0  0  0  0
    3.8816   -9.1166   17.2493 C   0  0  0  0  0  0  0  0  0  0  0  0
   10.1297   -1.6575   23.2324 C   0  0  0  0  0  0  0  0  0  0  0  0
    9.4684   -1.6929   26.7263 F   0  0  0  0  0  0  0  0  0  0  0  0
    7.7963   -7.7906   17.9837 C   0  0  0  0  0  0  0  0  0  0  0  0
   10.5884   -3.0725   16.7902 O   0  0  0  0  0  0  0  0  0  0  0  0
   10.4323   -5.3494   20.3516 C   0  0  0  0  0  0  0  0  0  0  0  0
    7.1156   -7.5454   16.8218 C   0  0  0  0  0  0  0  0  0  0  0  0
   10.3885   -4.4388   19.2773 C   0  0  0  0  0  0  0  0  0  0  0  0
    4.5160   -9.3822   15.0841 C   0  0  0  0  0  0  0  0  0  0  0  0
  1  3  4  0
  1 24  4  0
  2  6  4  0
  2 15  4  0
  3  5  4  0
  3  6  4  0
  4 21  4  0
  4 29  4  0
  5 15  4  0
  5 28  1  0
  6 16  4  0
  7 18  4  0
  7 26  4  0
  8 18  1  0
  8 19  4  0
  8 22  4  0
  9 12  4  0
  9 19  4  0
 10 12  4  0
 10 22  4  0
 11 20  4  0
 11 21  4  0
 12 23  1  0
 13 20  4  0
 13 29  4  0
 14 17  4  0
 14 28  4  0
 15 25  2  0
 16 27  4  0
 17 18  4  0
 20 27  1  0
 24 27  4  0
 26 28  4  0
M  END
$$$$

 Created by Python create_sdf_string function

 29 33  0  0  0  0  0  0  0  0999 V2000
    8.8270   -7.0288   18.4251 C   0  0  0  0  0  0  0  0  0  0  0  0
    9.1576   -4.6236   15.8860 O   0  0  0  0  0  0  0  0  0  0  0  0
    9.1509   -5.9108   17.7177 C   0  0  0  0  0  0  0  0  0  0  0  0
    3.6373   -9.5349   16.0582 N   0  0  0  0  0  0  0  0  0  0  0  0
    9.9275   -4.8001   18.0438 N   0  0  0  0  0  0  0  0  0  0  0  0
    8.5908   -5.7425   16.4412 C   0  0  0  0  0  0  0  0  0  0  0  0
   10.5993   -4.8981   21.6068 C   0  0  0  0  0  0  0  0  0  0  0  0
   10.4258   -3.0106   23.0998 C   0  0  0  0  0  0  0  0  0  0  0  0
   10.2148   -3.4364   25.4200 C   0  0  0  0  0  0  0  0  0  0  0  0
    9.7853   -1.1840   24.4927 C   0  0  0  0  0  0  0  0  0  0  0  0
    5.0276   -8.5227   17.5352 C   0  0  0  0  0  0  0  0  0  0  0  0
    9.8187   -2.0895   25.5800 C   0  0  0  0  0  0  0  0  0  0  0  0
    5.6473   -8.7216   15.3158 C   0  0  0  0  0  0  0  0  0  0  0  0
   10.7581   -3.1233   19.4720 N   0  0  0  0  0  0  0  0  0  0  0  0
    9.9571   -4.0573   16.8866 C   0  0  0  0  0  0  0  0  0  0  0  0
    7.6213   -6.5618   16.0087 C   0  0  0  0  0  0  0  0  0  0  0  0
   10.8583   -2.6527   20.7222 C   0  0  0  0  0  0  0  0  0  0  0  0
   10.6412   -3.5089   21.7936 C   0  0  0  0  0  0  0  0  0  0  0  0
   10.4972   -3.8968   24.1589 C   0  0  0  0  0  0  0  0  0  0  0  0
    5.9260   -8.2736   16.5517 C   0  0  0  0  0  0  0  0  0  0  0  0
    3.8816   -9.1166   17.2493 C   0  0  0  0  0  0  0  0  0  0  0  0
   10.1297   -1.6575   23.2324 C   0  0  0  0  0  0  0  0  0  0  0  0
    9.4684   -1.6929   26.7263 F   0  0  0  0  0  0  0  0  0  0  0  0
    7.7963   -7.7906   17.9837 C   0  0  0  0  0  0  0  0  0  0  0  0
   10.5884   -3.0725   16.7902 O   0  0  0  0  0  0  0  0  0  0  0  0
   10.4323   -5.3494   20.3516 C   0  0  0  0  0  0  0  0  0  0  0  0
    7.1156   -7.5454   16.8218 C   0  0  0  0  0  0  0  0  0  0  0  0
   10.3885   -4.4388   19.2773 C   0  0  0  0  0  0  0  0  0  0  0  0
    4.5160   -9.3822   15.0841 C   0  0  0  0  0  0  0  0  0  0  0  0
  1  3  4  0
  1 24  4  0
  2  6  4  0
  2 15  4  0
  3  5  4  0
  3  6  4  0
  4 21  4  0
  4 29  4  0
  5 15  4  0
  5 28  1  0
  6 16  4  0
  7 18  4  0
  7 26  4  0
  8 18  1  0
  8 19  4  0
  8 22  4  0
  9 12  4  0
  9 19  4  0
 10 12  4  0
 10 22  4  0
 11 20  4  0
 11 21  4  0
 12 23  1  0
 13 20  4  0
 13 29  4  0
 14 17  4  0
 14 28  4  0
 15 25  2  0
 16 27  4  0
 17 18  4  0
 20 27  1  0
 24 27  4  0
 26 28  4  0
M  END
$$$$

 Created by Python create_sdf_string function

 29 33  0  0  0  0  0  0  0  0999 V2000
    8.8270   -7.0288   18.4251 C   0  0  0  0  0  0  0  0  0  0  0  0
    9.1576   -4.6236   15.8860 O   0  0  0  0  0  0  0  0  0  0  0  0
    9.1509   -5.9108   17.7177 C   0  0  0  0  0  0  0  0  0  0  0  0
    3.6373   -9.5349   16.0582 N   0  0  0  0  0  0  0  0  0  0  0  0
    9.9275   -4.8001   18.0438 N   0  0  0  0  0  0  0  0  0  0  0  0
    8.5908   -5.7425   16.4412 C   0  0  0  0  0  0  0  0  0  0  0  0
   10.5993   -4.8981   21.6068 C   0  0  0  0  0  0  0  0  0  0  0  0
   10.4258   -3.0106   23.0998 C   0  0  0  0  0  0  0  0  0  0  0  0
   10.2148   -3.4364   25.4200 C   0  0  0  0  0  0  0  0  0  0  0  0
    9.7853   -1.1840   24.4927 C   0  0  0  0  0  0  0  0  0  0  0  0
    5.0276   -8.5227   17.5352 C   0  0  0  0  0  0  0  0  0  0  0  0
    9.8187   -2.0895   25.5800 C   0  0  0  0  0  0  0  0  0  0  0  0
    5.6473   -8.7216   15.3158 C   0  0  0  0  0  0  0  0  0  0  0  0
   10.7581   -3.1233   19.4720 N   0  0  0  0  0  0  0  0  0  0  0  0
    9.9571   -4.0573   16.8866 C   0  0  0  0  0  0  0  0  0  0  0  0
    7.6213   -6.5618   16.0087 C   0  0  0  0  0  0  0  0  0  0  0  0
   10.8583   -2.6527   20.7222 C   0  0  0  0  0  0  0  0  0  0  0  0
   10.6412   -3.5089   21.7936 C   0  0  0  0  0  0  0  0  0  0  0  0
   10.4972   -3.8968   24.1589 C   0  0  0  0  0  0  0  0  0  0  0  0
    5.9260   -8.2736   16.5517 C   0  0  0  0  0  0  0  0  0  0  0  0
    3.8816   -9.1166   17.2493 C   0  0  0  0  0  0  0  0  0  0  0  0
   10.1297   -1.6575   23.2324 C   0  0  0  0  0  0  0  0  0  0  0  0
    9.4684   -1.6929   26.7263 F   0  0  0  0  0  0  0  0  0  0  0  0
    7.7963   -7.7906   17.9837 C   0  0  0  0  0  0  0  0  0  0  0  0
   10.5884   -3.0725   16.7902 O   0  0  0  0  0  0  0  0  0  0  0  0
   10.4323   -5.3494   20.3516 C   0  0  0  0  0  0  0  0  0  0  0  0
    7.1156   -7.5454   16.8218 C   0  0  0  0  0  0  0  0  0  0  0  0
   10.3885   -4.4388   19.2773 C   0  0  0  0  0  0  0  0  0  0  0  0
    4.5160   -9.3822   15.0841 C   0  0  0  0  0  0  0  0  0  0  0  0
  1  3  4  0
  1 24  4  0
  2  6  4  0
  2 15  4  0
  3  5  4  0
  3  6  4  0
  4 21  4  0
  4 29  4  0
  5 15  4  0
  5 28  1  0
  6 16  4  0
  7 18  4  0
  7 26  4  0
  8 18  1  0
  8 19  4  0
  8 22  4  0
  9 12  4  0
  9 19  4  0
 10 12  4  0
 10 22  4  0
 11 20  4  0
 11 21  4  0
 12 23  1  0
 13 20  4  0
 13 29  4  0
 14 17  4  0
 14 28  4  0
 15 25  2  0
 16 27  4  0
 17 18  4  0
 20 27  1  0
 24 27  4  0
 26 28  4  0
M  END
$$$$

 Created by Python create_sdf_string function

 29 33  0  0  0  0  0  0  0  0999 V2000
    8.8270   -7.0288   18.4251 C   0  0  0  0  0  0  0  0  0  0  0  0
    9.1576   -4.6236   15.8860 O   0  0  0  0  0  0  0  0  0  0  0  0
    9.1509   -5.9108   17.7177 C   0  0  0  0  0  0  0  0  0  0  0  0
    3.6373   -9.5349   16.0582 N   0  0  0  0  0  0  0  0  0  0  0  0
    9.9275   -4.8001   18.0438 N   0  0  0  0  0  0  0  0  0  0  0  0
    8.5908   -5.7425   16.4412 C   0  0  0  0  0  0  0  0  0  0  0  0
   10.5993   -4.8981   21.6068 C   0  0  0  0  0  0  0  0  0  0  0  0
   10.4258   -3.0106   23.0998 C   0  0  0  0  0  0  0  0  0  0  0  0
   10.2148   -3.4364   25.4200 C   0  0  0  0  0  0  0  0  0  0  0  0
    9.7853   -1.1840   24.4927 C   0  0  0  0  0  0  0  0  0  0  0  0
    5.0276   -8.5227   17.5352 C   0  0  0  0  0  0  0  0  0  0  0  0
    9.8187   -2.0895   25.5800 C   0  0  0  0  0  0  0  0  0  0  0  0
    5.6473   -8.7216   15.3158 C   0  0  0  0  0  0  0  0  0  0  0  0
   10.7581   -3.1233   19.4720 N   0  0  0  0  0  0  0  0  0  0  0  0
    9.9571   -4.0573   16.8866 C   0  0  0  0  0  0  0  0  0  0  0  0
    7.6213   -6.5618   16.0087 C   0  0  0  0  0  0  0  0  0  0  0  0
   10.8583   -2.6527   20.7222 C   0  0  0  0  0  0  0  0  0  0  0  0
   10.6412   -3.5089   21.7936 C   0  0  0  0  0  0  0  0  0  0  0  0
   10.4972   -3.8968   24.1589 C   0  0  0  0  0  0  0  0  0  0  0  0
    5.9260   -8.2736   16.5517 C   0  0  0  0  0  0  0  0  0  0  0  0
    3.8816   -9.1166   17.2493 C   0  0  0  0  0  0  0  0  0  0  0  0
   10.1297   -1.6575   23.2324 C   0  0  0  0  0  0  0  0  0  0  0  0
    9.4684   -1.6929   26.7263 F   0  0  0  0  0  0  0  0  0  0  0  0
    7.7963   -7.7906   17.9837 C   0  0  0  0  0  0  0  0  0  0  0  0
   10.5884   -3.0725   16.7902 O   0  0  0  0  0  0  0  0  0  0  0  0
   10.4323   -5.3494   20.3516 C   0  0  0  0  0  0  0  0  0  0  0  0
    7.1156   -7.5454   16.8218 C   0  0  0  0  0  0  0  0  0  0  0  0
   10.3885   -4.4388   19.2773 C   0  0  0  0  0  0  0  0  0  0  0  0
    4.5160   -9.3822   15.0841 C   0  0  0  0  0  0  0  0  0  0  0  0
  1  3  4  0
  1 24  4  0
  2  6  4  0
  2 15  4  0
  3  5  4  0
  3  6  4  0
  4 21  4  0
  4 29  4  0
  5 15  4  0
  5 28  1  0
  6 16  4  0
  7 18  4  0
  7 26  4  0
  8 18  1  0
  8 19  4  0
  8 22  4  0
  9 12  4  0
  9 19  4  0
 10 12  4  0
 10 22  4  0
 11 20  4  0
 11 21  4  0
 12 23  1  0
 13 20  4  0
 13 29  4  0
 14 17  4  0
 14 28  4  0
 15 25  2  0
 16 27  4  0
 17 18  4  0
 20 27  1  0
 24 27  4  0
 26 28  4  0
M  END
$$$$

 Created by Python create_sdf_string function

 29 33  0  0  0  0  0  0  0  0999 V2000
    8.8270   -7.0288   18.4251 C   0  0  0  0  0  0  0  0  0  0  0  0
    9.1576   -4.6236   15.8860 O   0  0  0  0  0  0  0  0  0  0  0  0
    9.1509   -5.9108   17.7177 C   0  0  0  0  0  0  0  0  0  0  0  0
    3.6373   -9.5349   16.0582 N   0  0  0  0  0  0  0  0  0  0  0  0
    9.9275   -4.8001   18.0438 N   0  0  0  0  0  0  0  0  0  0  0  0
    8.5908   -5.7425   16.4412 C   0  0  0  0  0  0  0  0  0  0  0  0
   10.5993   -4.8981   21.6068 C   0  0  0  0  0  0  0  0  0  0  0  0
   10.4258   -3.0106   23.0998 C   0  0  0  0  0  0  0  0  0  0  0  0
   10.2148   -3.4364   25.4200 C   0  0  0  0  0  0  0  0  0  0  0  0
    9.7853   -1.1840   24.4927 C   0  0  0  0  0  0  0  0  0  0  0  0
    5.0276   -8.5227   17.5352 C   0  0  0  0  0  0  0  0  0  0  0  0
    9.8187   -2.0895   25.5800 C   0  0  0  0  0  0  0  0  0  0  0  0
    5.6473   -8.7216   15.3158 C   0  0  0  0  0  0  0  0  0  0  0  0
   10.7581   -3.1233   19.4720 N   0  0  0  0  0  0  0  0  0  0  0  0
    9.9571   -4.0573   16.8866 C   0  0  0  0  0  0  0  0  0  0  0  0
    7.6213   -6.5618   16.0087 C   0  0  0  0  0  0  0  0  0  0  0  0
   10.8583   -2.6527   20.7222 C   0  0  0  0  0  0  0  0  0  0  0  0
   10.6412   -3.5089   21.7936 C   0  0  0  0  0  0  0  0  0  0  0  0
   10.4972   -3.8968   24.1589 C   0  0  0  0  0  0  0  0  0  0  0  0
    5.9260   -8.2736   16.5517 C   0  0  0  0  0  0  0  0  0  0  0  0
    3.8816   -9.1166   17.2493 C   0  0  0  0  0  0  0  0  0  0  0  0
   10.1297   -1.6575   23.2324 C   0  0  0  0  0  0  0  0  0  0  0  0
    9.4684   -1.6929   26.7263 F   0  0  0  0  0  0  0  0  0  0  0  0
    7.7963   -7.7906   17.9837 C   0  0  0  0  0  0  0  0  0  0  0  0
   10.5884   -3.0725   16.7902 O   0  0  0  0  0  0  0  0  0  0  0  0
   10.4323   -5.3494   20.3516 C   0  0  0  0  0  0  0  0  0  0  0  0
    7.1156   -7.5454   16.8218 C   0  0  0  0  0  0  0  0  0  0  0  0
   10.3885   -4.4388   19.2773 C   0  0  0  0  0  0  0  0  0  0  0  0
    4.5160   -9.3822   15.0841 C   0  0  0  0  0  0  0  0  0  0  0  0
  1  3  4  0
  1 24  4  0
  2  6  4  0
  2 15  4  0
  3  5  4  0
  3  6  4  0
  4 21  4  0
  4 29  4  0
  5 15  4  0
  5 28  1  0
  6 16  4  0
  7 18  4  0
  7 26  4  0
  8 18  1  0
  8 19  4  0
  8 22  4  0
  9 12  4  0
  9 19  4  0
 10 12  4  0
 10 22  4  0
 11 20  4  0
 11 21  4  0
 12 23  1  0
 13 20  4  0
 13 29  4  0
 14 17  4  0
 14 28  4  0
 15 25  2  0
 16 27  4  0
 17 18  4  0
 20 27  1  0
 24 27  4  0
 26 28  4  0
M  END
$$$$

 Created by Python create_sdf_string function

 29 33  0  0  0  0  0  0  0  0999 V2000
    8.8270   -7.0288   18.4251 C   0  0  0  0  0  0  0  0  0  0  0  0
    9.1576   -4.6236   15.8860 O   0  0  0  0  0  0  0  0  0  0  0  0
    9.1509   -5.9108   17.7177 C   0  0  0  0  0  0  0  0  0  0  0  0
    3.6373   -9.5349   16.0582 N   0  0  0  0  0  0  0  0  0  0  0  0
    9.9275   -4.8001   18.0438 N   0  0  0  0  0  0  0  0  0  0  0  0
    8.5908   -5.7425   16.4412 C   0  0  0  0  0  0  0  0  0  0  0  0
   10.5993   -4.8981   21.6068 C   0  0  0  0  0  0  0  0  0  0  0  0
   10.4258   -3.0106   23.0998 C   0  0  0  0  0  0  0  0  0  0  0  0
   10.2148   -3.4364   25.4200 C   0  0  0  0  0  0  0  0  0  0  0  0
    9.7853   -1.1840   24.4927 C   0  0  0  0  0  0  0  0  0  0  0  0
    5.0276   -8.5227   17.5352 C   0  0  0  0  0  0  0  0  0  0  0  0
    9.8187   -2.0895   25.5800 C   0  0  0  0  0  0  0  0  0  0  0  0
    5.6473   -8.7216   15.3158 C   0  0  0  0  0  0  0  0  0  0  0  0
   10.7581   -3.1233   19.4720 N   0  0  0  0  0  0  0  0  0  0  0  0
    9.9571   -4.0573   16.8866 C   0  0  0  0  0  0  0  0  0  0  0  0
    7.6213   -6.5618   16.0087 C   0  0  0  0  0  0  0  0  0  0  0  0
   10.8583   -2.6527   20.7222 C   0  0  0  0  0  0  0  0  0  0  0  0
   10.6412   -3.5089   21.7936 C   0  0  0  0  0  0  0  0  0  0  0  0
   10.4972   -3.8968   24.1589 C   0  0  0  0  0  0  0  0  0  0  0  0
    5.9260   -8.2736   16.5517 C   0  0  0  0  0  0  0  0  0  0  0  0
    3.8816   -9.1166   17.2493 C   0  0  0  0  0  0  0  0  0  0  0  0
   10.1297   -1.6575   23.2324 C   0  0  0  0  0  0  0  0  0  0  0  0
    9.4684   -1.6929   26.7263 F   0  0  0  0  0  0  0  0  0  0  0  0
    7.7963   -7.7906   17.9837 C   0  0  0  0  0  0  0  0  0  0  0  0
   10.5884   -3.0725   16.7902 O   0  0  0  0  0  0  0  0  0  0  0  0
   10.4323   -5.3494   20.3516 C   0  0  0  0  0  0  0  0  0  0  0  0
    7.1156   -7.5454   16.8218 C   0  0  0  0  0  0  0  0  0  0  0  0
   10.3885   -4.4388   19.2773 C   0  0  0  0  0  0  0  0  0  0  0  0
    4.5160   -9.3822   15.0841 C   0  0  0  0  0  0  0  0  0  0  0  0
  1  3  4  0
  1 24  4  0
  2  6  4  0
  2 15  4  0
  3  5  4  0
  3  6  4  0
  4 21  4  0
  4 29  4  0
  5 15  4  0
  5 28  1  0
  6 16  4  0
  7 18  4  0
  7 26  4  0
  8 18  1  0
  8 19  4  0
  8 22  4  0
  9 12  4  0
  9 19  4  0
 10 12  4  0
 10 22  4  0
 11 20  4  0
 11 21  4  0
 12 23  1  0
 13 20  4  0
 13 29  4  0
 14 17  4  0
 14 28  4  0
 15 25  2  0
 16 27  4  0
 17 18  4  0
 20 27  1  0
 24 27  4  0
 26 28  4  0
M  END
$$$$

 Created by Python create_sdf_string function

 29 33  0  0  0  0  0  0  0  0999 V2000
    8.8270   -7.0288   18.4251 C   0  0  0  0  0  0  0  0  0  0  0  0
    9.1576   -4.6236   15.8860 O   0  0  0  0  0  0  0  0  0  0  0  0
    9.1509   -5.9108   17.7177 C   0  0  0  0  0  0  0  0  0  0  0  0
    3.6373   -9.5349   16.0582 N   0  0  0  0  0  0  0  0  0  0  0  0
    9.9275   -4.8001   18.0438 N   0  0  0  0  0  0  0  0  0  0  0  0
    8.5908   -5.7425   16.4412 C   0  0  0  0  0  0  0  0  0  0  0  0
   10.5993   -4.8981   21.6068 C   0  0  0  0  0  0  0  0  0  0  0  0
   10.4258   -3.0106   23.0998 C   0  0  0  0  0  0  0  0  0  0  0  0
   10.2148   -3.4364   25.4200 C   0  0  0  0  0  0  0  0  0  0  0  0
    9.7853   -1.1840   24.4927 C   0  0  0  0  0  0  0  0  0  0  0  0
    5.0276   -8.5227   17.5352 C   0  0  0  0  0  0  0  0  0  0  0  0
    9.8187   -2.0895   25.5800 C   0  0  0  0  0  0  0  0  0  0  0  0
    5.6473   -8.7216   15.3158 C   0  0  0  0  0  0  0  0  0  0  0  0
   10.7581   -3.1233   19.4720 N   0  0  0  0  0  0  0  0  0  0  0  0
    9.9571   -4.0573   16.8866 C   0  0  0  0  0  0  0  0  0  0  0  0
    7.6213   -6.5618   16.0087 C   0  0  0  0  0  0  0  0  0  0  0  0
   10.8583   -2.6527   20.7222 C   0  0  0  0  0  0  0  0  0  0  0  0
   10.6412   -3.5089   21.7936 C   0  0  0  0  0  0  0  0  0  0  0  0
   10.4972   -3.8968   24.1589 C   0  0  0  0  0  0  0  0  0  0  0  0
    5.9260   -8.2736   16.5517 C   0  0  0  0  0  0  0  0  0  0  0  0
    3.8816   -9.1166   17.2493 C   0  0  0  0  0  0  0  0  0  0  0  0
   10.1297   -1.6575   23.2324 C   0  0  0  0  0  0  0  0  0  0  0  0
    9.4684   -1.6929   26.7263 F   0  0  0  0  0  0  0  0  0  0  0  0
    7.7963   -7.7906   17.9837 C   0  0  0  0  0  0  0  0  0  0  0  0
   10.5884   -3.0725   16.7902 O   0  0  0  0  0  0  0  0  0  0  0  0
   10.4323   -5.3494   20.3516 C   0  0  0  0  0  0  0  0  0  0  0  0
    7.1156   -7.5454   16.8218 C   0  0  0  0  0  0  0  0  0  0  0  0
   10.3885   -4.4388   19.2773 C   0  0  0  0  0  0  0  0  0  0  0  0
    4.5160   -9.3822   15.0841 C   0  0  0  0  0  0  0  0  0  0  0  0
  1  3  4  0
  1 24  4  0
  2  6  4  0
  2 15  4  0
  3  5  4  0
  3  6  4  0
  4 21  4  0
  4 29  4  0
  5 15  4  0
  5 28  1  0
  6 16  4  0
  7 18  4  0
  7 26  4  0
  8 18  1  0
  8 19  4  0
  8 22  4  0
  9 12  4  0
  9 19  4  0
 10 12  4  0
 10 22  4  0
 11 20  4  0
 11 21  4  0
 12 23  1  0
 13 20  4  0
 13 29  4  0
 14 17  4  0
 14 28  4  0
 15 25  2  0
 16 27  4  0
 17 18  4  0
 20 27  1  0
 24 27  4  0
 26 28  4  0
M  END
$$$$

 Created by Python create_sdf_string function

 29 33  0  0  0  0  0  0  0  0999 V2000
    8.8270   -7.0288   18.4251 C   0  0  0  0  0  0  0  0  0  0  0  0
    9.1576   -4.6236   15.8860 O   0  0  0  0  0  0  0  0  0  0  0  0
    9.1509   -5.9108   17.7177 C   0  0  0  0  0  0  0  0  0  0  0  0
    3.6373   -9.5349   16.0582 N   0  0  0  0  0  0  0  0  0  0  0  0
    9.9275   -4.8001   18.0438 N   0  0  0  0  0  0  0  0  0  0  0  0
    8.5908   -5.7425   16.4412 C   0  0  0  0  0  0  0  0  0  0  0  0
   10.5993   -4.8981   21.6068 C   0  0  0  0  0  0  0  0  0  0  0  0
   10.4258   -3.0106   23.0998 C   0  0  0  0  0  0  0  0  0  0  0  0
   10.2148   -3.4364   25.4200 C   0  0  0  0  0  0  0  0  0  0  0  0
    9.7853   -1.1840   24.4927 C   0  0  0  0  0  0  0  0  0  0  0  0
    5.0276   -8.5227   17.5352 C   0  0  0  0  0  0  0  0  0  0  0  0
    9.8187   -2.0895   25.5800 C   0  0  0  0  0  0  0  0  0  0  0  0
    5.6473   -8.7216   15.3158 C   0  0  0  0  0  0  0  0  0  0  0  0
   10.7581   -3.1233   19.4720 N   0  0  0  0  0  0  0  0  0  0  0  0
    9.9571   -4.0573   16.8866 C   0  0  0  0  0  0  0  0  0  0  0  0
    7.6213   -6.5618   16.0087 C   0  0  0  0  0  0  0  0  0  0  0  0
   10.8583   -2.6527   20.7222 C   0  0  0  0  0  0  0  0  0  0  0  0
   10.6412   -3.5089   21.7936 C   0  0  0  0  0  0  0  0  0  0  0  0
   10.4972   -3.8968   24.1589 C   0  0  0  0  0  0  0  0  0  0  0  0
    5.9260   -8.2736   16.5517 C   0  0  0  0  0  0  0  0  0  0  0  0
    3.8816   -9.1166   17.2493 C   0  0  0  0  0  0  0  0  0  0  0  0
   10.1297   -1.6575   23.2324 C   0  0  0  0  0  0  0  0  0  0  0  0
    9.4684   -1.6929   26.7263 F   0  0  0  0  0  0  0  0  0  0  0  0
    7.7963   -7.7906   17.9837 C   0  0  0  0  0  0  0  0  0  0  0  0
   10.5884   -3.0725   16.7902 O   0  0  0  0  0  0  0  0  0  0  0  0
   10.4323   -5.3494   20.3516 C   0  0  0  0  0  0  0  0  0  0  0  0
    7.1156   -7.5454   16.8218 C   0  0  0  0  0  0  0  0  0  0  0  0
   10.3885   -4.4388   19.2773 C   0  0  0  0  0  0  0  0  0  0  0  0
    4.5160   -9.3822   15.0841 C   0  0  0  0  0  0  0  0  0  0  0  0
  1  3  4  0
  1 24  4  0
  2  6  4  0
  2 15  4  0
  3  5  4  0
  3  6  4  0
  4 21  4  0
  4 29  4  0
  5 15  4  0
  5 28  1  0
  6 16  4  0
  7 18  4  0
  7 26  4  0
  8 18  1  0
  8 19  4  0
  8 22  4  0
  9 12  4  0
  9 19  4  0
 10 12  4  0
 10 22  4  0
 11 20  4  0
 11 21  4  0
 12 23  1  0
 13 20  4  0
 13 29  4  0
 14 17  4  0
 14 28  4  0
 15 25  2  0
 16 27  4  0
 17 18  4  0
 20 27  1  0
 24 27  4  0
 26 28  4  0
M  END
$$$$

 Created by Python create_sdf_string function

 29 33  0  0  0  0  0  0  0  0999 V2000
    8.8270   -7.0288   18.4251 C   0  0  0  0  0  0  0  0  0  0  0  0
    9.1576   -4.6236   15.8860 O   0  0  0  0  0  0  0  0  0  0  0  0
    9.1509   -5.9108   17.7177 C   0  0  0  0  0  0  0  0  0  0  0  0
    3.6373   -9.5349   16.0582 N   0  0  0  0  0  0  0  0  0  0  0  0
    9.9275   -4.8001   18.0438 N   0  0  0  0  0  0  0  0  0  0  0  0
    8.5908   -5.7425   16.4412 C   0  0  0  0  0  0  0  0  0  0  0  0
   10.5993   -4.8981   21.6068 C   0  0  0  0  0  0  0  0  0  0  0  0
   10.4258   -3.0106   23.0998 C   0  0  0  0  0  0  0  0  0  0  0  0
   10.2148   -3.4364   25.4200 C   0  0  0  0  0  0  0  0  0  0  0  0
    9.7853   -1.1840   24.4927 C   0  0  0  0  0  0  0  0  0  0  0  0
    5.0276   -8.5227   17.5352 C   0  0  0  0  0  0  0  0  0  0  0  0
    9.8187   -2.0895   25.5800 C   0  0  0  0  0  0  0  0  0  0  0  0
    5.6473   -8.7216   15.3158 C   0  0  0  0  0  0  0  0  0  0  0  0
   10.7581   -3.1233   19.4720 N   0  0  0  0  0  0  0  0  0  0  0  0
    9.9571   -4.0573   16.8866 C   0  0  0  0  0  0  0  0  0  0  0  0
    7.6213   -6.5618   16.0087 C   0  0  0  0  0  0  0  0  0  0  0  0
   10.8583   -2.6527   20.7222 C   0  0  0  0  0  0  0  0  0  0  0  0
   10.6412   -3.5089   21.7936 C   0  0  0  0  0  0  0  0  0  0  0  0
   10.4972   -3.8968   24.1589 C   0  0  0  0  0  0  0  0  0  0  0  0
    5.9260   -8.2736   16.5517 C   0  0  0  0  0  0  0  0  0  0  0  0
    3.8816   -9.1166   17.2493 C   0  0  0  0  0  0  0  0  0  0  0  0
   10.1297   -1.6575   23.2324 C   0  0  0  0  0  0  0  0  0  0  0  0
    9.4684   -1.6929   26.7263 F   0  0  0  0  0  0  0  0  0  0  0  0
    7.7963   -7.7906   17.9837 C   0  0  0  0  0  0  0  0  0  0  0  0
   10.5884   -3.0725   16.7902 O   0  0  0  0  0  0  0  0  0  0  0  0
   10.4323   -5.3494   20.3516 C   0  0  0  0  0  0  0  0  0  0  0  0
    7.1156   -7.5454   16.8218 C   0  0  0  0  0  0  0  0  0  0  0  0
   10.3885   -4.4388   19.2773 C   0  0  0  0  0  0  0  0  0  0  0  0
    4.5160   -9.3822   15.0841 C   0  0  0  0  0  0  0  0  0  0  0  0
  1  3  4  0
  1 24  4  0
  2  6  4  0
  2 15  4  0
  3  5  4  0
  3  6  4  0
  4 21  4  0
  4 29  4  0
  5 15  4  0
  5 28  1  0
  6 16  4  0
  7 18  4  0
  7 26  4  0
  8 18  1  0
  8 19  4  0
  8 22  4  0
  9 12  4  0
  9 19  4  0
 10 12  4  0
 10 22  4  0
 11 20  4  0
 11 21  4  0
 12 23  1  0
 13 20  4  0
 13 29  4  0
 14 17  4  0
 14 28  4  0
 15 25  2  0
 16 27  4  0
 17 18  4  0
 20 27  1  0
 24 27  4  0
 26 28  4  0
M  END
$$$$

 Created by Python create_sdf_string function

 29 33  0  0  0  0  0  0  0  0999 V2000
    8.8270   -7.0288   18.4251 C   0  0  0  0  0  0  0  0  0  0  0  0
    9.1576   -4.6236   15.8860 O   0  0  0  0  0  0  0  0  0  0  0  0
    9.1509   -5.9108   17.7177 C   0  0  0  0  0  0  0  0  0  0  0  0
    3.6373   -9.5349   16.0582 N   0  0  0  0  0  0  0  0  0  0  0  0
    9.9275   -4.8001   18.0438 N   0  0  0  0  0  0  0  0  0  0  0  0
    8.5908   -5.7425   16.4412 C   0  0  0  0  0  0  0  0  0  0  0  0
   10.5993   -4.8981   21.6068 C   0  0  0  0  0  0  0  0  0  0  0  0
   10.4258   -3.0106   23.0998 C   0  0  0  0  0  0  0  0  0  0  0  0
   10.2148   -3.4364   25.4200 C   0  0  0  0  0  0  0  0  0  0  0  0
    9.7853   -1.1840   24.4927 C   0  0  0  0  0  0  0  0  0  0  0  0
    5.0276   -8.5227   17.5352 C   0  0  0  0  0  0  0  0  0  0  0  0
    9.8187   -2.0895   25.5800 C   0  0  0  0  0  0  0  0  0  0  0  0
    5.6473   -8.7216   15.3158 C   0  0  0  0  0  0  0  0  0  0  0  0
   10.7581   -3.1233   19.4720 N   0  0  0  0  0  0  0  0  0  0  0  0
    9.9571   -4.0573   16.8866 C   0  0  0  0  0  0  0  0  0  0  0  0
    7.6213   -6.5618   16.0087 C   0  0  0  0  0  0  0  0  0  0  0  0
   10.8583   -2.6527   20.7222 C   0  0  0  0  0  0  0  0  0  0  0  0
   10.6412   -3.5089   21.7936 C   0  0  0  0  0  0  0  0  0  0  0  0
   10.4972   -3.8968   24.1589 C   0  0  0  0  0  0  0  0  0  0  0  0
    5.9260   -8.2736   16.5517 C   0  0  0  0  0  0  0  0  0  0  0  0
    3.8816   -9.1166   17.2493 C   0  0  0  0  0  0  0  0  0  0  0  0
   10.1297   -1.6575   23.2324 C   0  0  0  0  0  0  0  0  0  0  0  0
    9.4684   -1.6929   26.7263 F   0  0  0  0  0  0  0  0  0  0  0  0
    7.7963   -7.7906   17.9837 C   0  0  0  0  0  0  0  0  0  0  0  0
   10.5884   -3.0725   16.7902 O   0  0  0  0  0  0  0  0  0  0  0  0
   10.4323   -5.3494   20.3516 C   0  0  0  0  0  0  0  0  0  0  0  0
    7.1156   -7.5454   16.8218 C   0  0  0  0  0  0  0  0  0  0  0  0
   10.3885   -4.4388   19.2773 C   0  0  0  0  0  0  0  0  0  0  0  0
    4.5160   -9.3822   15.0841 C   0  0  0  0  0  0  0  0  0  0  0  0
  1  3  4  0
  1 24  4  0
  2  6  4  0
  2 15  4  0
  3  5  4  0
  3  6  4  0
  4 21  4  0
  4 29  4  0
  5 15  4  0
  5 28  1  0
  6 16  4  0
  7 18  4  0
  7 26  4  0
  8 18  1  0
  8 19  4  0
  8 22  4  0
  9 12  4  0
  9 19  4  0
 10 12  4  0
 10 22  4  0
 11 20  4  0
 11 21  4  0
 12 23  1  0
 13 20  4  0
 13 29  4  0
 14 17  4  0
 14 28  4  0
 15 25  2  0
 16 27  4  0
 17 18  4  0
 20 27  1  0
 24 27  4  0
 26 28  4  0
M  END
$$$$

 Created by Python create_sdf_string function

 29 33  0  0  0  0  0  0  0  0999 V2000
    8.8270   -7.0288   18.4251 C   0  0  0  0  0  0  0  0  0  0  0  0
    9.1576   -4.6236   15.8860 O   0  0  0  0  0  0  0  0  0  0  0  0
    9.1509   -5.9108   17.7177 C   0  0  0  0  0  0  0  0  0  0  0  0
    3.6373   -9.5349   16.0582 N   0  0  0  0  0  0  0  0  0  0  0  0
    9.9275   -4.8001   18.0438 N   0  0  0  0  0  0  0  0  0  0  0  0
    8.5908   -5.7425   16.4412 C   0  0  0  0  0  0  0  0  0  0  0  0
   10.5993   -4.8981   21.6068 C   0  0  0  0  0  0  0  0  0  0  0  0
   10.4258   -3.0106   23.0998 C   0  0  0  0  0  0  0  0  0  0  0  0
   10.2148   -3.4364   25.4200 C   0  0  0  0  0  0  0  0  0  0  0  0
    9.7853   -1.1840   24.4927 C   0  0  0  0  0  0  0  0  0  0  0  0
    5.0276   -8.5227   17.5352 C   0  0  0  0  0  0  0  0  0  0  0  0
    9.8187   -2.0895   25.5800 C   0  0  0  0  0  0  0  0  0  0  0  0
    5.6473   -8.7216   15.3158 C   0  0  0  0  0  0  0  0  0  0  0  0
   10.7581   -3.1233   19.4720 N   0  0  0  0  0  0  0  0  0  0  0  0
    9.9571   -4.0573   16.8866 C   0  0  0  0  0  0  0  0  0  0  0  0
    7.6213   -6.5618   16.0087 C   0  0  0  0  0  0  0  0  0  0  0  0
   10.8583   -2.6527   20.7222 C   0  0  0  0  0  0  0  0  0  0  0  0
   10.6412   -3.5089   21.7936 C   0  0  0  0  0  0  0  0  0  0  0  0
   10.4972   -3.8968   24.1589 C   0  0  0  0  0  0  0  0  0  0  0  0
    5.9260   -8.2736   16.5517 C   0  0  0  0  0  0  0  0  0  0  0  0
    3.8816   -9.1166   17.2493 C   0  0  0  0  0  0  0  0  0  0  0  0
   10.1297   -1.6575   23.2324 C   0  0  0  0  0  0  0  0  0  0  0  0
    9.4684   -1.6929   26.7263 F   0  0  0  0  0  0  0  0  0  0  0  0
    7.7963   -7.7906   17.9837 C   0  0  0  0  0  0  0  0  0  0  0  0
   10.5884   -3.0725   16.7902 O   0  0  0  0  0  0  0  0  0  0  0  0
   10.4323   -5.3494   20.3516 C   0  0  0  0  0  0  0  0  0  0  0  0
    7.1156   -7.5454   16.8218 C   0  0  0  0  0  0  0  0  0  0  0  0
   10.3885   -4.4388   19.2773 C   0  0  0  0  0  0  0  0  0  0  0  0
    4.5160   -9.3822   15.0841 C   0  0  0  0  0  0  0  0  0  0  0  0
  1  3  4  0
  1 24  4  0
  2  6  4  0
  2 15  4  0
  3  5  4  0
  3  6  4  0
  4 21  4  0
  4 29  4  0
  5 15  4  0
  5 28  1  0
  6 16  4  0
  7 18  4  0
  7 26  4  0
  8 18  1  0
  8 19  4  0
  8 22  4  0
  9 12  4  0
  9 19  4  0
 10 12  4  0
 10 22  4  0
 11 20  4  0
 11 21  4  0
 12 23  1  0
 13 20  4  0
 13 29  4  0
 14 17  4  0
 14 28  4  0
 15 25  2  0
 16 27  4  0
 17 18  4  0
 20 27  1  0
 24 27  4  0
 26 28  4  0
M  END
$$$$

 Created by Python create_sdf_string function

 29 33  0  0  0  0  0  0  0  0999 V2000
    8.8270   -7.0288   18.4251 C   0  0  0  0  0  0  0  0  0  0  0  0
    9.1576   -4.6236   15.8860 O   0  0  0  0  0  0  0  0  0  0  0  0
    9.1509   -5.9108   17.7177 C   0  0  0  0  0  0  0  0  0  0  0  0
    3.6373   -9.5349   16.0582 N   0  0  0  0  0  0  0  0  0  0  0  0
    9.9275   -4.8001   18.0438 N   0  0  0  0  0  0  0  0  0  0  0  0
    8.5908   -5.7425   16.4412 C   0  0  0  0  0  0  0  0  0  0  0  0
   10.5993   -4.8981   21.6068 C   0  0  0  0  0  0  0  0  0  0  0  0
   10.4258   -3.0106   23.0998 C   0  0  0  0  0  0  0  0  0  0  0  0
   10.2148   -3.4364   25.4200 C   0  0  0  0  0  0  0  0  0  0  0  0
    9.7853   -1.1840   24.4927 C   0  0  0  0  0  0  0  0  0  0  0  0
    5.0276   -8.5227   17.5352 C   0  0  0  0  0  0  0  0  0  0  0  0
    9.8187   -2.0895   25.5800 C   0  0  0  0  0  0  0  0  0  0  0  0
    5.6473   -8.7216   15.3158 C   0  0  0  0  0  0  0  0  0  0  0  0
   10.7581   -3.1233   19.4720 N   0  0  0  0  0  0  0  0  0  0  0  0
    9.9571   -4.0573   16.8866 C   0  0  0  0  0  0  0  0  0  0  0  0
    7.6213   -6.5618   16.0087 C   0  0  0  0  0  0  0  0  0  0  0  0
   10.8583   -2.6527   20.7222 C   0  0  0  0  0  0  0  0  0  0  0  0
   10.6412   -3.5089   21.7936 C   0  0  0  0  0  0  0  0  0  0  0  0
   10.4972   -3.8968   24.1589 C   0  0  0  0  0  0  0  0  0  0  0  0
    5.9260   -8.2736   16.5517 C   0  0  0  0  0  0  0  0  0  0  0  0
    3.8816   -9.1166   17.2493 C   0  0  0  0  0  0  0  0  0  0  0  0
   10.1297   -1.6575   23.2324 C   0  0  0  0  0  0  0  0  0  0  0  0
    9.4684   -1.6929   26.7263 F   0  0  0  0  0  0  0  0  0  0  0  0
    7.7963   -7.7906   17.9837 C   0  0  0  0  0  0  0  0  0  0  0  0
   10.5884   -3.0725   16.7902 O   0  0  0  0  0  0  0  0  0  0  0  0
   10.4323   -5.3494   20.3516 C   0  0  0  0  0  0  0  0  0  0  0  0
    7.1156   -7.5454   16.8218 C   0  0  0  0  0  0  0  0  0  0  0  0
   10.3885   -4.4388   19.2773 C   0  0  0  0  0  0  0  0  0  0  0  0
    4.5160   -9.3822   15.0841 C   0  0  0  0  0  0  0  0  0  0  0  0
  1  3  4  0
  1 24  4  0
  2  6  4  0
  2 15  4  0
  3  5  4  0
  3  6  4  0
  4 21  4  0
  4 29  4  0
  5 15  4  0
  5 28  1  0
  6 16  4  0
  7 18  4  0
  7 26  4  0
  8 18  1  0
  8 19  4  0
  8 22  4  0
  9 12  4  0
  9 19  4  0
 10 12  4  0
 10 22  4  0
 11 20  4  0
 11 21  4  0
 12 23  1  0
 13 20  4  0
 13 29  4  0
 14 17  4  0
 14 28  4  0
 15 25  2  0
 16 27  4  0
 17 18  4  0
 20 27  1  0
 24 27  4  0
 26 28  4  0
M  END
$$$$

 Created by Python create_sdf_string function

 29 33  0  0  0  0  0  0  0  0999 V2000
    8.8270   -7.0288   18.4251 C   0  0  0  0  0  0  0  0  0  0  0  0
    9.1576   -4.6236   15.8860 O   0  0  0  0  0  0  0  0  0  0  0  0
    9.1509   -5.9108   17.7177 C   0  0  0  0  0  0  0  0  0  0  0  0
    3.6373   -9.5349   16.0582 N   0  0  0  0  0  0  0  0  0  0  0  0
    9.9275   -4.8001   18.0438 N   0  0  0  0  0  0  0  0  0  0  0  0
    8.5908   -5.7425   16.4412 C   0  0  0  0  0  0  0  0  0  0  0  0
   10.5993   -4.8981   21.6068 C   0  0  0  0  0  0  0  0  0  0  0  0
   10.4258   -3.0106   23.0998 C   0  0  0  0  0  0  0  0  0  0  0  0
   10.2148   -3.4364   25.4200 C   0  0  0  0  0  0  0  0  0  0  0  0
    9.7853   -1.1840   24.4927 C   0  0  0  0  0  0  0  0  0  0  0  0
    5.0276   -8.5227   17.5352 C   0  0  0  0  0  0  0  0  0  0  0  0
    9.8187   -2.0895   25.5800 C   0  0  0  0  0  0  0  0  0  0  0  0
    5.6473   -8.7216   15.3158 C   0  0  0  0  0  0  0  0  0  0  0  0
   10.7581   -3.1233   19.4720 N   0  0  0  0  0  0  0  0  0  0  0  0
    9.9571   -4.0573   16.8866 C   0  0  0  0  0  0  0  0  0  0  0  0
    7.6213   -6.5618   16.0087 C   0  0  0  0  0  0  0  0  0  0  0  0
   10.8583   -2.6527   20.7222 C   0  0  0  0  0  0  0  0  0  0  0  0
   10.6412   -3.5089   21.7936 C   0  0  0  0  0  0  0  0  0  0  0  0
   10.4972   -3.8968   24.1589 C   0  0  0  0  0  0  0  0  0  0  0  0
    5.9260   -8.2736   16.5517 C   0  0  0  0  0  0  0  0  0  0  0  0
    3.8816   -9.1166   17.2493 C   0  0  0  0  0  0  0  0  0  0  0  0
   10.1297   -1.6575   23.2324 C   0  0  0  0  0  0  0  0  0  0  0  0
    9.4684   -1.6929   26.7263 F   0  0  0  0  0  0  0  0  0  0  0  0
    7.7963   -7.7906   17.9837 C   0  0  0  0  0  0  0  0  0  0  0  0
   10.5884   -3.0725   16.7902 O   0  0  0  0  0  0  0  0  0  0  0  0
   10.4323   -5.3494   20.3516 C   0  0  0  0  0  0  0  0  0  0  0  0
    7.1156   -7.5454   16.8218 C   0  0  0  0  0  0  0  0  0  0  0  0
   10.3885   -4.4388   19.2773 C   0  0  0  0  0  0  0  0  0  0  0  0
    4.5160   -9.3822   15.0841 C   0  0  0  0  0  0  0  0  0  0  0  0
  1  3  4  0
  1 24  4  0
  2  6  4  0
  2 15  4  0
  3  5  4  0
  3  6  4  0
  4 21  4  0
  4 29  4  0
  5 15  4  0
  5 28  1  0
  6 16  4  0
  7 18  4  0
  7 26  4  0
  8 18  1  0
  8 19  4  0
  8 22  4  0
  9 12  4  0
  9 19  4  0
 10 12  4  0
 10 22  4  0
 11 20  4  0
 11 21  4  0
 12 23  1  0
 13 20  4  0
 13 29  4  0
 14 17  4  0
 14 28  4  0
 15 25  2  0
 16 27  4  0
 17 18  4  0
 20 27  1  0
 24 27  4  0
 26 28  4  0
M  END
$$$$

 Created by Python create_sdf_string function

 29 33  0  0  0  0  0  0  0  0999 V2000
    8.8270   -7.0288   18.4251 C   0  0  0  0  0  0  0  0  0  0  0  0
    9.1576   -4.6236   15.8860 O   0  0  0  0  0  0  0  0  0  0  0  0
    9.1509   -5.9108   17.7177 C   0  0  0  0  0  0  0  0  0  0  0  0
    3.6373   -9.5349   16.0582 N   0  0  0  0  0  0  0  0  0  0  0  0
    9.9275   -4.8001   18.0438 N   0  0  0  0  0  0  0  0  0  0  0  0
    8.5908   -5.7425   16.4412 C   0  0  0  0  0  0  0  0  0  0  0  0
   10.5993   -4.8981   21.6068 C   0  0  0  0  0  0  0  0  0  0  0  0
   10.4258   -3.0106   23.0998 C   0  0  0  0  0  0  0  0  0  0  0  0
   10.2148   -3.4364   25.4200 C   0  0  0  0  0  0  0  0  0  0  0  0
    9.7853   -1.1840   24.4927 C   0  0  0  0  0  0  0  0  0  0  0  0
    5.0276   -8.5227   17.5352 C   0  0  0  0  0  0  0  0  0  0  0  0
    9.8187   -2.0895   25.5800 C   0  0  0  0  0  0  0  0  0  0  0  0
    5.6473   -8.7216   15.3158 C   0  0  0  0  0  0  0  0  0  0  0  0
   10.7581   -3.1233   19.4720 N   0  0  0  0  0  0  0  0  0  0  0  0
    9.9571   -4.0573   16.8866 C   0  0  0  0  0  0  0  0  0  0  0  0
    7.6213   -6.5618   16.0087 C   0  0  0  0  0  0  0  0  0  0  0  0
   10.8583   -2.6527   20.7222 C   0  0  0  0  0  0  0  0  0  0  0  0
   10.6412   -3.5089   21.7936 C   0  0  0  0  0  0  0  0  0  0  0  0
   10.4972   -3.8968   24.1589 C   0  0  0  0  0  0  0  0  0  0  0  0
    5.9260   -8.2736   16.5517 C   0  0  0  0  0  0  0  0  0  0  0  0
    3.8816   -9.1166   17.2493 C   0  0  0  0  0  0  0  0  0  0  0  0
   10.1297   -1.6575   23.2324 C   0  0  0  0  0  0  0  0  0  0  0  0
    9.4684   -1.6929   26.7263 F   0  0  0  0  0  0  0  0  0  0  0  0
    7.7963   -7.7906   17.9837 C   0  0  0  0  0  0  0  0  0  0  0  0
   10.5884   -3.0725   16.7902 O   0  0  0  0  0  0  0  0  0  0  0  0
   10.4323   -5.3494   20.3516 C   0  0  0  0  0  0  0  0  0  0  0  0
    7.1156   -7.5454   16.8218 C   0  0  0  0  0  0  0  0  0  0  0  0
   10.3885   -4.4388   19.2773 C   0  0  0  0  0  0  0  0  0  0  0  0
    4.5160   -9.3822   15.0841 C   0  0  0  0  0  0  0  0  0  0  0  0
  1  3  4  0
  1 24  4  0
  2  6  4  0
  2 15  4  0
  3  5  4  0
  3  6  4  0
  4 21  4  0
  4 29  4  0
  5 15  4  0
  5 28  1  0
  6 16  4  0
  7 18  4  0
  7 26  4  0
  8 18  1  0
  8 19  4  0
  8 22  4  0
  9 12  4  0
  9 19  4  0
 10 12  4  0
 10 22  4  0
 11 20  4  0
 11 21  4  0
 12 23  1  0
 13 20  4  0
 13 29  4  0
 14 17  4  0
 14 28  4  0
 15 25  2  0
 16 27  4  0
 17 18  4  0
 20 27  1  0
 24 27  4  0
 26 28  4  0
M  END
$$$$

 Created by Python create_sdf_string function

 29 33  0  0  0  0  0  0  0  0999 V2000
    8.8270   -7.0288   18.4251 C   0  0  0  0  0  0  0  0  0  0  0  0
    9.1576   -4.6236   15.8860 O   0  0  0  0  0  0  0  0  0  0  0  0
    9.1509   -5.9108   17.7177 C   0  0  0  0  0  0  0  0  0  0  0  0
    3.6373   -9.5349   16.0582 N   0  0  0  0  0  0  0  0  0  0  0  0
    9.9275   -4.8001   18.0438 N   0  0  0  0  0  0  0  0  0  0  0  0
    8.5908   -5.7425   16.4412 C   0  0  0  0  0  0  0  0  0  0  0  0
   10.5993   -4.8981   21.6068 C   0  0  0  0  0  0  0  0  0  0  0  0
   10.4258   -3.0106   23.0998 C   0  0  0  0  0  0  0  0  0  0  0  0
   10.2148   -3.4364   25.4200 C   0  0  0  0  0  0  0  0  0  0  0  0
    9.7853   -1.1840   24.4927 C   0  0  0  0  0  0  0  0  0  0  0  0
    5.0276   -8.5227   17.5352 C   0  0  0  0  0  0  0  0  0  0  0  0
    9.8187   -2.0895   25.5800 C   0  0  0  0  0  0  0  0  0  0  0  0
    5.6473   -8.7216   15.3158 C   0  0  0  0  0  0  0  0  0  0  0  0
   10.7581   -3.1233   19.4720 N   0  0  0  0  0  0  0  0  0  0  0  0
    9.9571   -4.0573   16.8866 C   0  0  0  0  0  0  0  0  0  0  0  0
    7.6213   -6.5618   16.0087 C   0  0  0  0  0  0  0  0  0  0  0  0
   10.8583   -2.6527   20.7222 C   0  0  0  0  0  0  0  0  0  0  0  0
   10.6412   -3.5089   21.7936 C   0  0  0  0  0  0  0  0  0  0  0  0
   10.4972   -3.8968   24.1589 C   0  0  0  0  0  0  0  0  0  0  0  0
    5.9260   -8.2736   16.5517 C   0  0  0  0  0  0  0  0  0  0  0  0
    3.8816   -9.1166   17.2493 C   0  0  0  0  0  0  0  0  0  0  0  0
   10.1297   -1.6575   23.2324 C   0  0  0  0  0  0  0  0  0  0  0  0
    9.4684   -1.6929   26.7263 F   0  0  0  0  0  0  0  0  0  0  0  0
    7.7963   -7.7906   17.9837 C   0  0  0  0  0  0  0  0  0  0  0  0
   10.5884   -3.0725   16.7902 O   0  0  0  0  0  0  0  0  0  0  0  0
   10.4323   -5.3494   20.3516 C   0  0  0  0  0  0  0  0  0  0  0  0
    7.1156   -7.5454   16.8218 C   0  0  0  0  0  0  0  0  0  0  0  0
   10.3885   -4.4388   19.2773 C   0  0  0  0  0  0  0  0  0  0  0  0
    4.5160   -9.3822   15.0841 C   0  0  0  0  0  0  0  0  0  0  0  0
  1  3  4  0
  1 24  4  0
  2  6  4  0
  2 15  4  0
  3  5  4  0
  3  6  4  0
  4 21  4  0
  4 29  4  0
  5 15  4  0
  5 28  1  0
  6 16  4  0
  7 18  4  0
  7 26  4  0
  8 18  1  0
  8 19  4  0
  8 22  4  0
  9 12  4  0
  9 19  4  0
 10 12  4  0
 10 22  4  0
 11 20  4  0
 11 21  4  0
 12 23  1  0
 13 20  4  0
 13 29  4  0
 14 17  4  0
 14 28  4  0
 15 25  2  0
 16 27  4  0
 17 18  4  0
 20 27  1  0
 24 27  4  0
 26 28  4  0
M  END
$$$$

 Created by Python create_sdf_string function

 29 33  0  0  0  0  0  0  0  0999 V2000
    8.8270   -7.0288   18.4251 C   0  0  0  0  0  0  0  0  0  0  0  0
    9.1576   -4.6236   15.8860 O   0  0  0  0  0  0  0  0  0  0  0  0
    9.1509   -5.9108   17.7177 C   0  0  0  0  0  0  0  0  0  0  0  0
    3.6373   -9.5349   16.0582 N   0  0  0  0  0  0  0  0  0  0  0  0
    9.9275   -4.8001   18.0438 N   0  0  0  0  0  0  0  0  0  0  0  0
    8.5908   -5.7425   16.4412 C   0  0  0  0  0  0  0  0  0  0  0  0
   10.5993   -4.8981   21.6068 C   0  0  0  0  0  0  0  0  0  0  0  0
   10.4258   -3.0106   23.0998 C   0  0  0  0  0  0  0  0  0  0  0  0
   10.2148   -3.4364   25.4200 C   0  0  0  0  0  0  0  0  0  0  0  0
    9.7853   -1.1840   24.4927 C   0  0  0  0  0  0  0  0  0  0  0  0
    5.0276   -8.5227   17.5352 C   0  0  0  0  0  0  0  0  0  0  0  0
    9.8187   -2.0895   25.5800 C   0  0  0  0  0  0  0  0  0  0  0  0
    5.6473   -8.7216   15.3158 C   0  0  0  0  0  0  0  0  0  0  0  0
   10.7581   -3.1233   19.4720 N   0  0  0  0  0  0  0  0  0  0  0  0
    9.9571   -4.0573   16.8866 C   0  0  0  0  0  0  0  0  0  0  0  0
    7.6213   -6.5618   16.0087 C   0  0  0  0  0  0  0  0  0  0  0  0
   10.8583   -2.6527   20.7222 C   0  0  0  0  0  0  0  0  0  0  0  0
   10.6412   -3.5089   21.7936 C   0  0  0  0  0  0  0  0  0  0  0  0
   10.4972   -3.8968   24.1589 C   0  0  0  0  0  0  0  0  0  0  0  0
    5.9260   -8.2736   16.5517 C   0  0  0  0  0  0  0  0  0  0  0  0
    3.8816   -9.1166   17.2493 C   0  0  0  0  0  0  0  0  0  0  0  0
   10.1297   -1.6575   23.2324 C   0  0  0  0  0  0  0  0  0  0  0  0
    9.4684   -1.6929   26.7263 F   0  0  0  0  0  0  0  0  0  0  0  0
    7.7963   -7.7906   17.9837 C   0  0  0  0  0  0  0  0  0  0  0  0
   10.5884   -3.0725   16.7902 O   0  0  0  0  0  0  0  0  0  0  0  0
   10.4323   -5.3494   20.3516 C   0  0  0  0  0  0  0  0  0  0  0  0
    7.1156   -7.5454   16.8218 C   0  0  0  0  0  0  0  0  0  0  0  0
   10.3885   -4.4388   19.2773 C   0  0  0  0  0  0  0  0  0  0  0  0
    4.5160   -9.3822   15.0841 C   0  0  0  0  0  0  0  0  0  0  0  0
  1  3  4  0
  1 24  4  0
  2  6  4  0
  2 15  4  0
  3  5  4  0
  3  6  4  0
  4 21  4  0
  4 29  4  0
  5 15  4  0
  5 28  1  0
  6 16  4  0
  7 18  4  0
  7 26  4  0
  8 18  1  0
  8 19  4  0
  8 22  4  0
  9 12  4  0
  9 19  4  0
 10 12  4  0
 10 22  4  0
 11 20  4  0
 11 21  4  0
 12 23  1  0
 13 20  4  0
 13 29  4  0
 14 17  4  0
 14 28  4  0
 15 25  2  0
 16 27  4  0
 17 18  4  0
 20 27  1  0
 24 27  4  0
 26 28  4  0
M  END
$$$$

 Created by Python create_sdf_string function

 29 33  0  0  0  0  0  0  0  0999 V2000
    8.8270   -7.0288   18.4251 C   0  0  0  0  0  0  0  0  0  0  0  0
    9.1576   -4.6236   15.8860 O   0  0  0  0  0  0  0  0  0  0  0  0
    9.1509   -5.9108   17.7177 C   0  0  0  0  0  0  0  0  0  0  0  0
    3.6373   -9.5349   16.0582 N   0  0  0  0  0  0  0  0  0  0  0  0
    9.9275   -4.8001   18.0438 N   0  0  0  0  0  0  0  0  0  0  0  0
    8.5908   -5.7425   16.4412 C   0  0  0  0  0  0  0  0  0  0  0  0
   10.5993   -4.8981   21.6068 C   0  0  0  0  0  0  0  0  0  0  0  0
   10.4258   -3.0106   23.0998 C   0  0  0  0  0  0  0  0  0  0  0  0
   10.2148   -3.4364   25.4200 C   0  0  0  0  0  0  0  0  0  0  0  0
    9.7853   -1.1840   24.4927 C   0  0  0  0  0  0  0  0  0  0  0  0
    5.0276   -8.5227   17.5352 C   0  0  0  0  0  0  0  0  0  0  0  0
    9.8187   -2.0895   25.5800 C   0  0  0  0  0  0  0  0  0  0  0  0
    5.6473   -8.7216   15.3158 C   0  0  0  0  0  0  0  0  0  0  0  0
   10.7581   -3.1233   19.4720 N   0  0  0  0  0  0  0  0  0  0  0  0
    9.9571   -4.0573   16.8866 C   0  0  0  0  0  0  0  0  0  0  0  0
    7.6213   -6.5618   16.0087 C   0  0  0  0  0  0  0  0  0  0  0  0
   10.8583   -2.6527   20.7222 C   0  0  0  0  0  0  0  0  0  0  0  0
   10.6412   -3.5089   21.7936 C   0  0  0  0  0  0  0  0  0  0  0  0
   10.4972   -3.8968   24.1589 C   0  0  0  0  0  0  0  0  0  0  0  0
    5.9260   -8.2736   16.5517 C   0  0  0  0  0  0  0  0  0  0  0  0
    3.8816   -9.1166   17.2493 C   0  0  0  0  0  0  0  0  0  0  0  0
   10.1297   -1.6575   23.2324 C   0  0  0  0  0  0  0  0  0  0  0  0
    9.4684   -1.6929   26.7263 F   0  0  0  0  0  0  0  0  0  0  0  0
    7.7963   -7.7906   17.9837 C   0  0  0  0  0  0  0  0  0  0  0  0
   10.5884   -3.0725   16.7902 O   0  0  0  0  0  0  0  0  0  0  0  0
   10.4323   -5.3494   20.3516 C   0  0  0  0  0  0  0  0  0  0  0  0
    7.1156   -7.5454   16.8218 C   0  0  0  0  0  0  0  0  0  0  0  0
   10.3885   -4.4388   19.2773 C   0  0  0  0  0  0  0  0  0  0  0  0
    4.5160   -9.3822   15.0841 C   0  0  0  0  0  0  0  0  0  0  0  0
  1  3  4  0
  1 24  4  0
  2  6  4  0
  2 15  4  0
  3  5  4  0
  3  6  4  0
  4 21  4  0
  4 29  4  0
  5 15  4  0
  5 28  1  0
  6 16  4  0
  7 18  4  0
  7 26  4  0
  8 18  1  0
  8 19  4  0
  8 22  4  0
  9 12  4  0
  9 19  4  0
 10 12  4  0
 10 22  4  0
 11 20  4  0
 11 21  4  0
 12 23  1  0
 13 20  4  0
 13 29  4  0
 14 17  4  0
 14 28  4  0
 15 25  2  0
 16 27  4  0
 17 18  4  0
 20 27  1  0
 24 27  4  0
 26 28  4  0
M  END
$$$$

 Created by Python create_sdf_string function

 29 33  0  0  0  0  0  0  0  0999 V2000
    8.8270   -7.0288   18.4251 C   0  0  0  0  0  0  0  0  0  0  0  0
    9.1576   -4.6236   15.8860 O   0  0  0  0  0  0  0  0  0  0  0  0
    9.1509   -5.9108   17.7177 C   0  0  0  0  0  0  0  0  0  0  0  0
    3.6373   -9.5349   16.0582 N   0  0  0  0  0  0  0  0  0  0  0  0
    9.9275   -4.8001   18.0438 N   0  0  0  0  0  0  0  0  0  0  0  0
    8.5908   -5.7425   16.4412 C   0  0  0  0  0  0  0  0  0  0  0  0
   10.5993   -4.8981   21.6068 C   0  0  0  0  0  0  0  0  0  0  0  0
   10.4258   -3.0106   23.0998 C   0  0  0  0  0  0  0  0  0  0  0  0
   10.2148   -3.4364   25.4200 C   0  0  0  0  0  0  0  0  0  0  0  0
    9.7853   -1.1840   24.4927 C   0  0  0  0  0  0  0  0  0  0  0  0
    5.0276   -8.5227   17.5352 C   0  0  0  0  0  0  0  0  0  0  0  0
    9.8187   -2.0895   25.5800 C   0  0  0  0  0  0  0  0  0  0  0  0
    5.6473   -8.7216   15.3158 C   0  0  0  0  0  0  0  0  0  0  0  0
   10.7581   -3.1233   19.4720 N   0  0  0  0  0  0  0  0  0  0  0  0
    9.9571   -4.0573   16.8866 C   0  0  0  0  0  0  0  0  0  0  0  0
    7.6213   -6.5618   16.0087 C   0  0  0  0  0  0  0  0  0  0  0  0
   10.8583   -2.6527   20.7222 C   0  0  0  0  0  0  0  0  0  0  0  0
   10.6412   -3.5089   21.7936 C   0  0  0  0  0  0  0  0  0  0  0  0
   10.4972   -3.8968   24.1589 C   0  0  0  0  0  0  0  0  0  0  0  0
    5.9260   -8.2736   16.5517 C   0  0  0  0  0  0  0  0  0  0  0  0
    3.8816   -9.1166   17.2493 C   0  0  0  0  0  0  0  0  0  0  0  0
   10.1297   -1.6575   23.2324 C   0  0  0  0  0  0  0  0  0  0  0  0
    9.4684   -1.6929   26.7263 F   0  0  0  0  0  0  0  0  0  0  0  0
    7.7963   -7.7906   17.9837 C   0  0  0  0  0  0  0  0  0  0  0  0
   10.5884   -3.0725   16.7902 O   0  0  0  0  0  0  0  0  0  0  0  0
   10.4323   -5.3494   20.3516 C   0  0  0  0  0  0  0  0  0  0  0  0
    7.1156   -7.5454   16.8218 C   0  0  0  0  0  0  0  0  0  0  0  0
   10.3885   -4.4388   19.2773 C   0  0  0  0  0  0  0  0  0  0  0  0
    4.5160   -9.3822   15.0841 C   0  0  0  0  0  0  0  0  0  0  0  0
  1  3  4  0
  1 24  4  0
  2  6  4  0
  2 15  4  0
  3  5  4  0
  3  6  4  0
  4 21  4  0
  4 29  4  0
  5 15  4  0
  5 28  1  0
  6 16  4  0
  7 18  4  0
  7 26  4  0
  8 18  1  0
  8 19  4  0
  8 22  4  0
  9 12  4  0
  9 19  4  0
 10 12  4  0
 10 22  4  0
 11 20  4  0
 11 21  4  0
 12 23  1  0
 13 20  4  0
 13 29  4  0
 14 17  4  0
 14 28  4  0
 15 25  2  0
 16 27  4  0
 17 18  4  0
 20 27  1  0
 24 27  4  0
 26 28  4  0
M  END
$$$$

 Created by Python create_sdf_string function

 29 33  0  0  0  0  0  0  0  0999 V2000
    8.8270   -7.0288   18.4251 C   0  0  0  0  0  0  0  0  0  0  0  0
    9.1576   -4.6236   15.8860 O   0  0  0  0  0  0  0  0  0  0  0  0
    9.1509   -5.9108   17.7177 C   0  0  0  0  0  0  0  0  0  0  0  0
    3.6373   -9.5349   16.0582 N   0  0  0  0  0  0  0  0  0  0  0  0
    9.9275   -4.8001   18.0438 N   0  0  0  0  0  0  0  0  0  0  0  0
    8.5908   -5.7425   16.4412 C   0  0  0  0  0  0  0  0  0  0  0  0
   10.5993   -4.8981   21.6068 C   0  0  0  0  0  0  0  0  0  0  0  0
   10.4258   -3.0106   23.0998 C   0  0  0  0  0  0  0  0  0  0  0  0
   10.2148   -3.4364   25.4200 C   0  0  0  0  0  0  0  0  0  0  0  0
    9.7853   -1.1840   24.4927 C   0  0  0  0  0  0  0  0  0  0  0  0
    5.0276   -8.5227   17.5352 C   0  0  0  0  0  0  0  0  0  0  0  0
    9.8187   -2.0895   25.5800 C   0  0  0  0  0  0  0  0  0  0  0  0
    5.6473   -8.7216   15.3158 C   0  0  0  0  0  0  0  0  0  0  0  0
   10.7581   -3.1233   19.4720 N   0  0  0  0  0  0  0  0  0  0  0  0
    9.9571   -4.0573   16.8866 C   0  0  0  0  0  0  0  0  0  0  0  0
    7.6213   -6.5618   16.0087 C   0  0  0  0  0  0  0  0  0  0  0  0
   10.8583   -2.6527   20.7222 C   0  0  0  0  0  0  0  0  0  0  0  0
   10.6412   -3.5089   21.7936 C   0  0  0  0  0  0  0  0  0  0  0  0
   10.4972   -3.8968   24.1589 C   0  0  0  0  0  0  0  0  0  0  0  0
    5.9260   -8.2736   16.5517 C   0  0  0  0  0  0  0  0  0  0  0  0
    3.8816   -9.1166   17.2493 C   0  0  0  0  0  0  0  0  0  0  0  0
   10.1297   -1.6575   23.2324 C   0  0  0  0  0  0  0  0  0  0  0  0
    9.4684   -1.6929   26.7263 F   0  0  0  0  0  0  0  0  0  0  0  0
    7.7963   -7.7906   17.9837 C   0  0  0  0  0  0  0  0  0  0  0  0
   10.5884   -3.0725   16.7902 O   0  0  0  0  0  0  0  0  0  0  0  0
   10.4323   -5.3494   20.3516 C   0  0  0  0  0  0  0  0  0  0  0  0
    7.1156   -7.5454   16.8218 C   0  0  0  0  0  0  0  0  0  0  0  0
   10.3885   -4.4388   19.2773 C   0  0  0  0  0  0  0  0  0  0  0  0
    4.5160   -9.3822   15.0841 C   0  0  0  0  0  0  0  0  0  0  0  0
  1  3  4  0
  1 24  4  0
  2  6  4  0
  2 15  4  0
  3  5  4  0
  3  6  4  0
  4 21  4  0
  4 29  4  0
  5 15  4  0
  5 28  1  0
  6 16  4  0
  7 18  4  0
  7 26  4  0
  8 18  1  0
  8 19  4  0
  8 22  4  0
  9 12  4  0
  9 19  4  0
 10 12  4  0
 10 22  4  0
 11 20  4  0
 11 21  4  0
 12 23  1  0
 13 20  4  0
 13 29  4  0
 14 17  4  0
 14 28  4  0
 15 25  2  0
 16 27  4  0
 17 18  4  0
 20 27  1  0
 24 27  4  0
 26 28  4  0
M  END
$$$$

 Created by Python create_sdf_string function

 29 33  0  0  0  0  0  0  0  0999 V2000
    8.8270   -7.0288   18.4251 C   0  0  0  0  0  0  0  0  0  0  0  0
    9.1576   -4.6236   15.8860 O   0  0  0  0  0  0  0  0  0  0  0  0
    9.1509   -5.9108   17.7177 C   0  0  0  0  0  0  0  0  0  0  0  0
    3.6373   -9.5349   16.0582 N   0  0  0  0  0  0  0  0  0  0  0  0
    9.9275   -4.8001   18.0438 N   0  0  0  0  0  0  0  0  0  0  0  0
    8.5908   -5.7425   16.4412 C   0  0  0  0  0  0  0  0  0  0  0  0
   10.5993   -4.8981   21.6068 C   0  0  0  0  0  0  0  0  0  0  0  0
   10.4258   -3.0106   23.0998 C   0  0  0  0  0  0  0  0  0  0  0  0
   10.2148   -3.4364   25.4200 C   0  0  0  0  0  0  0  0  0  0  0  0
    9.7853   -1.1840   24.4927 C   0  0  0  0  0  0  0  0  0  0  0  0
    5.0276   -8.5227   17.5352 C   0  0  0  0  0  0  0  0  0  0  0  0
    9.8187   -2.0895   25.5800 C   0  0  0  0  0  0  0  0  0  0  0  0
    5.6473   -8.7216   15.3158 C   0  0  0  0  0  0  0  0  0  0  0  0
   10.7581   -3.1233   19.4720 N   0  0  0  0  0  0  0  0  0  0  0  0
    9.9571   -4.0573   16.8866 C   0  0  0  0  0  0  0  0  0  0  0  0
    7.6213   -6.5618   16.0087 C   0  0  0  0  0  0  0  0  0  0  0  0
   10.8583   -2.6527   20.7222 C   0  0  0  0  0  0  0  0  0  0  0  0
   10.6412   -3.5089   21.7936 C   0  0  0  0  0  0  0  0  0  0  0  0
   10.4972   -3.8968   24.1589 C   0  0  0  0  0  0  0  0  0  0  0  0
    5.9260   -8.2736   16.5517 C   0  0  0  0  0  0  0  0  0  0  0  0
    3.8816   -9.1166   17.2493 C   0  0  0  0  0  0  0  0  0  0  0  0
   10.1297   -1.6575   23.2324 C   0  0  0  0  0  0  0  0  0  0  0  0
    9.4684   -1.6929   26.7263 F   0  0  0  0  0  0  0  0  0  0  0  0
    7.7963   -7.7906   17.9837 C   0  0  0  0  0  0  0  0  0  0  0  0
   10.5884   -3.0725   16.7902 O   0  0  0  0  0  0  0  0  0  0  0  0
   10.4323   -5.3494   20.3516 C   0  0  0  0  0  0  0  0  0  0  0  0
    7.1156   -7.5454   16.8218 C   0  0  0  0  0  0  0  0  0  0  0  0
   10.3885   -4.4388   19.2773 C   0  0  0  0  0  0  0  0  0  0  0  0
    4.5160   -9.3822   15.0841 C   0  0  0  0  0  0  0  0  0  0  0  0
  1  3  4  0
  1 24  4  0
  2  6  4  0
  2 15  4  0
  3  5  4  0
  3  6  4  0
  4 21  4  0
  4 29  4  0
  5 15  4  0
  5 28  1  0
  6 16  4  0
  7 18  4  0
  7 26  4  0
  8 18  1  0
  8 19  4  0
  8 22  4  0
  9 12  4  0
  9 19  4  0
 10 12  4  0
 10 22  4  0
 11 20  4  0
 11 21  4  0
 12 23  1  0
 13 20  4  0
 13 29  4  0
 14 17  4  0
 14 28  4  0
 15 25  2  0
 16 27  4  0
 17 18  4  0
 20 27  1  0
 24 27  4  0
 26 28  4  0
M  END
$$$$

 Created by Python create_sdf_string function

 29 33  0  0  0  0  0  0  0  0999 V2000
    8.8270   -7.0288   18.4251 C   0  0  0  0  0  0  0  0  0  0  0  0
    9.1576   -4.6236   15.8860 O   0  0  0  0  0  0  0  0  0  0  0  0
    9.1509   -5.9108   17.7177 C   0  0  0  0  0  0  0  0  0  0  0  0
    3.6373   -9.5349   16.0582 N   0  0  0  0  0  0  0  0  0  0  0  0
    9.9275   -4.8001   18.0438 N   0  0  0  0  0  0  0  0  0  0  0  0
    8.5908   -5.7425   16.4412 C   0  0  0  0  0  0  0  0  0  0  0  0
   10.5993   -4.8981   21.6068 C   0  0  0  0  0  0  0  0  0  0  0  0
   10.4258   -3.0106   23.0998 C   0  0  0  0  0  0  0  0  0  0  0  0
   10.2148   -3.4364   25.4200 C   0  0  0  0  0  0  0  0  0  0  0  0
    9.7853   -1.1840   24.4927 C   0  0  0  0  0  0  0  0  0  0  0  0
    5.0276   -8.5227   17.5352 C   0  0  0  0  0  0  0  0  0  0  0  0
    9.8187   -2.0895   25.5800 C   0  0  0  0  0  0  0  0  0  0  0  0
    5.6473   -8.7216   15.3158 C   0  0  0  0  0  0  0  0  0  0  0  0
   10.7581   -3.1233   19.4720 N   0  0  0  0  0  0  0  0  0  0  0  0
    9.9571   -4.0573   16.8866 C   0  0  0  0  0  0  0  0  0  0  0  0
    7.6213   -6.5618   16.0087 C   0  0  0  0  0  0  0  0  0  0  0  0
   10.8583   -2.6527   20.7222 C   0  0  0  0  0  0  0  0  0  0  0  0
   10.6412   -3.5089   21.7936 C   0  0  0  0  0  0  0  0  0  0  0  0
   10.4972   -3.8968   24.1589 C   0  0  0  0  0  0  0  0  0  0  0  0
    5.9260   -8.2736   16.5517 C   0  0  0  0  0  0  0  0  0  0  0  0
    3.8816   -9.1166   17.2493 C   0  0  0  0  0  0  0  0  0  0  0  0
   10.1297   -1.6575   23.2324 C   0  0  0  0  0  0  0  0  0  0  0  0
    9.4684   -1.6929   26.7263 F   0  0  0  0  0  0  0  0  0  0  0  0
    7.7963   -7.7906   17.9837 C   0  0  0  0  0  0  0  0  0  0  0  0
   10.5884   -3.0725   16.7902 O   0  0  0  0  0  0  0  0  0  0  0  0
   10.4323   -5.3494   20.3516 C   0  0  0  0  0  0  0  0  0  0  0  0
    7.1156   -7.5454   16.8218 C   0  0  0  0  0  0  0  0  0  0  0  0
   10.3885   -4.4388   19.2773 C   0  0  0  0  0  0  0  0  0  0  0  0
    4.5160   -9.3822   15.0841 C   0  0  0  0  0  0  0  0  0  0  0  0
  1  3  4  0
  1 24  4  0
  2  6  4  0
  2 15  4  0
  3  5  4  0
  3  6  4  0
  4 21  4  0
  4 29  4  0
  5 15  4  0
  5 28  1  0
  6 16  4  0
  7 18  4  0
  7 26  4  0
  8 18  1  0
  8 19  4  0
  8 22  4  0
  9 12  4  0
  9 19  4  0
 10 12  4  0
 10 22  4  0
 11 20  4  0
 11 21  4  0
 12 23  1  0
 13 20  4  0
 13 29  4  0
 14 17  4  0
 14 28  4  0
 15 25  2  0
 16 27  4  0
 17 18  4  0
 20 27  1  0
 24 27  4  0
 26 28  4  0
M  END
$$$$

 Created by Python create_sdf_string function

 29 33  0  0  0  0  0  0  0  0999 V2000
    8.8270   -7.0288   18.4251 C   0  0  0  0  0  0  0  0  0  0  0  0
    9.1576   -4.6236   15.8860 O   0  0  0  0  0  0  0  0  0  0  0  0
    9.1509   -5.9108   17.7177 C   0  0  0  0  0  0  0  0  0  0  0  0
    3.6373   -9.5349   16.0582 N   0  0  0  0  0  0  0  0  0  0  0  0
    9.9275   -4.8001   18.0438 N   0  0  0  0  0  0  0  0  0  0  0  0
    8.5908   -5.7425   16.4412 C   0  0  0  0  0  0  0  0  0  0  0  0
   10.5993   -4.8981   21.6068 C   0  0  0  0  0  0  0  0  0  0  0  0
   10.4258   -3.0106   23.0998 C   0  0  0  0  0  0  0  0  0  0  0  0
   10.2148   -3.4364   25.4200 C   0  0  0  0  0  0  0  0  0  0  0  0
    9.7853   -1.1840   24.4927 C   0  0  0  0  0  0  0  0  0  0  0  0
    5.0276   -8.5227   17.5352 C   0  0  0  0  0  0  0  0  0  0  0  0
    9.8187   -2.0895   25.5800 C   0  0  0  0  0  0  0  0  0  0  0  0
    5.6473   -8.7216   15.3158 C   0  0  0  0  0  0  0  0  0  0  0  0
   10.7581   -3.1233   19.4720 N   0  0  0  0  0  0  0  0  0  0  0  0
    9.9571   -4.0573   16.8866 C   0  0  0  0  0  0  0  0  0  0  0  0
    7.6213   -6.5618   16.0087 C   0  0  0  0  0  0  0  0  0  0  0  0
   10.8583   -2.6527   20.7222 C   0  0  0  0  0  0  0  0  0  0  0  0
   10.6412   -3.5089   21.7936 C   0  0  0  0  0  0  0  0  0  0  0  0
   10.4972   -3.8968   24.1589 C   0  0  0  0  0  0  0  0  0  0  0  0
    5.9260   -8.2736   16.5517 C   0  0  0  0  0  0  0  0  0  0  0  0
    3.8816   -9.1166   17.2493 C   0  0  0  0  0  0  0  0  0  0  0  0
   10.1297   -1.6575   23.2324 C   0  0  0  0  0  0  0  0  0  0  0  0
    9.4684   -1.6929   26.7263 F   0  0  0  0  0  0  0  0  0  0  0  0
    7.7963   -7.7906   17.9837 C   0  0  0  0  0  0  0  0  0  0  0  0
   10.5884   -3.0725   16.7902 O   0  0  0  0  0  0  0  0  0  0  0  0
   10.4323   -5.3494   20.3516 C   0  0  0  0  0  0  0  0  0  0  0  0
    7.1156   -7.5454   16.8218 C   0  0  0  0  0  0  0  0  0  0  0  0
   10.3885   -4.4388   19.2773 C   0  0  0  0  0  0  0  0  0  0  0  0
    4.5160   -9.3822   15.0841 C   0  0  0  0  0  0  0  0  0  0  0  0
  1  3  4  0
  1 24  4  0
  2  6  4  0
  2 15  4  0
  3  5  4  0
  3  6  4  0
  4 21  4  0
  4 29  4  0
  5 15  4  0
  5 28  1  0
  6 16  4  0
  7 18  4  0
  7 26  4  0
  8 18  1  0
  8 19  4  0
  8 22  4  0
  9 12  4  0
  9 19  4  0
 10 12  4  0
 10 22  4  0
 11 20  4  0
 11 21  4  0
 12 23  1  0
 13 20  4  0
 13 29  4  0
 14 17  4  0
 14 28  4  0
 15 25  2  0
 16 27  4  0
 17 18  4  0
 20 27  1  0
 24 27  4  0
 26 28  4  0
M  END
$$$$

 Created by Python create_sdf_string function

 29 33  0  0  0  0  0  0  0  0999 V2000
    8.8270   -7.0288   18.4251 C   0  0  0  0  0  0  0  0  0  0  0  0
    9.1576   -4.6236   15.8860 O   0  0  0  0  0  0  0  0  0  0  0  0
    9.1509   -5.9108   17.7177 C   0  0  0  0  0  0  0  0  0  0  0  0
    3.6373   -9.5349   16.0582 N   0  0  0  0  0  0  0  0  0  0  0  0
    9.9275   -4.8001   18.0438 N   0  0  0  0  0  0  0  0  0  0  0  0
    8.5908   -5.7425   16.4412 C   0  0  0  0  0  0  0  0  0  0  0  0
   10.5993   -4.8981   21.6068 C   0  0  0  0  0  0  0  0  0  0  0  0
   10.4258   -3.0106   23.0998 C   0  0  0  0  0  0  0  0  0  0  0  0
   10.2148   -3.4364   25.4200 C   0  0  0  0  0  0  0  0  0  0  0  0
    9.7853   -1.1840   24.4927 C   0  0  0  0  0  0  0  0  0  0  0  0
    5.0276   -8.5227   17.5352 C   0  0  0  0  0  0  0  0  0  0  0  0
    9.8187   -2.0895   25.5800 C   0  0  0  0  0  0  0  0  0  0  0  0
    5.6473   -8.7216   15.3158 C   0  0  0  0  0  0  0  0  0  0  0  0
   10.7581   -3.1233   19.4720 N   0  0  0  0  0  0  0  0  0  0  0  0
    9.9571   -4.0573   16.8866 C   0  0  0  0  0  0  0  0  0  0  0  0
    7.6213   -6.5618   16.0087 C   0  0  0  0  0  0  0  0  0  0  0  0
   10.8583   -2.6527   20.7222 C   0  0  0  0  0  0  0  0  0  0  0  0
   10.6412   -3.5089   21.7936 C   0  0  0  0  0  0  0  0  0  0  0  0
   10.4972   -3.8968   24.1589 C   0  0  0  0  0  0  0  0  0  0  0  0
    5.9260   -8.2736   16.5517 C   0  0  0  0  0  0  0  0  0  0  0  0
    3.8816   -9.1166   17.2493 C   0  0  0  0  0  0  0  0  0  0  0  0
   10.1297   -1.6575   23.2324 C   0  0  0  0  0  0  0  0  0  0  0  0
    9.4684   -1.6929   26.7263 F   0  0  0  0  0  0  0  0  0  0  0  0
    7.7963   -7.7906   17.9837 C   0  0  0  0  0  0  0  0  0  0  0  0
   10.5884   -3.0725   16.7902 O   0  0  0  0  0  0  0  0  0  0  0  0
   10.4323   -5.3494   20.3516 C   0  0  0  0  0  0  0  0  0  0  0  0
    7.1156   -7.5454   16.8218 C   0  0  0  0  0  0  0  0  0  0  0  0
   10.3885   -4.4388   19.2773 C   0  0  0  0  0  0  0  0  0  0  0  0
    4.5160   -9.3822   15.0841 C   0  0  0  0  0  0  0  0  0  0  0  0
  1  3  4  0
  1 24  4  0
  2  6  4  0
  2 15  4  0
  3  5  4  0
  3  6  4  0
  4 21  4  0
  4 29  4  0
  5 15  4  0
  5 28  1  0
  6 16  4  0
  7 18  4  0
  7 26  4  0
  8 18  1  0
  8 19  4  0
  8 22  4  0
  9 12  4  0
  9 19  4  0
 10 12  4  0
 10 22  4  0
 11 20  4  0
 11 21  4  0
 12 23  1  0
 13 20  4  0
 13 29  4  0
 14 17  4  0
 14 28  4  0
 15 25  2  0
 16 27  4  0
 17 18  4  0
 20 27  1  0
 24 27  4  0
 26 28  4  0
M  END
$$$$

 Created by Python create_sdf_string function

 29 33  0  0  0  0  0  0  0  0999 V2000
    8.8270   -7.0288   18.4251 C   0  0  0  0  0  0  0  0  0  0  0  0
    9.1576   -4.6236   15.8860 O   0  0  0  0  0  0  0  0  0  0  0  0
    9.1509   -5.9108   17.7177 C   0  0  0  0  0  0  0  0  0  0  0  0
    3.6373   -9.5349   16.0582 N   0  0  0  0  0  0  0  0  0  0  0  0
    9.9275   -4.8001   18.0438 N   0  0  0  0  0  0  0  0  0  0  0  0
    8.5908   -5.7425   16.4412 C   0  0  0  0  0  0  0  0  0  0  0  0
   10.5993   -4.8981   21.6068 C   0  0  0  0  0  0  0  0  0  0  0  0
   10.4258   -3.0106   23.0998 C   0  0  0  0  0  0  0  0  0  0  0  0
   10.2148   -3.4364   25.4200 C   0  0  0  0  0  0  0  0  0  0  0  0
    9.7853   -1.1840   24.4927 C   0  0  0  0  0  0  0  0  0  0  0  0
    5.0276   -8.5227   17.5352 C   0  0  0  0  0  0  0  0  0  0  0  0
    9.8187   -2.0895   25.5800 C   0  0  0  0  0  0  0  0  0  0  0  0
    5.6473   -8.7216   15.3158 C   0  0  0  0  0  0  0  0  0  0  0  0
   10.7581   -3.1233   19.4720 N   0  0  0  0  0  0  0  0  0  0  0  0
    9.9571   -4.0573   16.8866 C   0  0  0  0  0  0  0  0  0  0  0  0
    7.6213   -6.5618   16.0087 C   0  0  0  0  0  0  0  0  0  0  0  0
   10.8583   -2.6527   20.7222 C   0  0  0  0  0  0  0  0  0  0  0  0
   10.6412   -3.5089   21.7936 C   0  0  0  0  0  0  0  0  0  0  0  0
   10.4972   -3.8968   24.1589 C   0  0  0  0  0  0  0  0  0  0  0  0
    5.9260   -8.2736   16.5517 C   0  0  0  0  0  0  0  0  0  0  0  0
    3.8816   -9.1166   17.2493 C   0  0  0  0  0  0  0  0  0  0  0  0
   10.1297   -1.6575   23.2324 C   0  0  0  0  0  0  0  0  0  0  0  0
    9.4684   -1.6929   26.7263 F   0  0  0  0  0  0  0  0  0  0  0  0
    7.7963   -7.7906   17.9837 C   0  0  0  0  0  0  0  0  0  0  0  0
   10.5884   -3.0725   16.7902 O   0  0  0  0  0  0  0  0  0  0  0  0
   10.4323   -5.3494   20.3516 C   0  0  0  0  0  0  0  0  0  0  0  0
    7.1156   -7.5454   16.8218 C   0  0  0  0  0  0  0  0  0  0  0  0
   10.3885   -4.4388   19.2773 C   0  0  0  0  0  0  0  0  0  0  0  0
    4.5160   -9.3822   15.0841 C   0  0  0  0  0  0  0  0  0  0  0  0
  1  3  4  0
  1 24  4  0
  2  6  4  0
  2 15  4  0
  3  5  4  0
  3  6  4  0
  4 21  4  0
  4 29  4  0
  5 15  4  0
  5 28  1  0
  6 16  4  0
  7 18  4  0
  7 26  4  0
  8 18  1  0
  8 19  4  0
  8 22  4  0
  9 12  4  0
  9 19  4  0
 10 12  4  0
 10 22  4  0
 11 20  4  0
 11 21  4  0
 12 23  1  0
 13 20  4  0
 13 29  4  0
 14 17  4  0
 14 28  4  0
 15 25  2  0
 16 27  4  0
 17 18  4  0
 20 27  1  0
 24 27  4  0
 26 28  4  0
M  END
$$$$

 Created by Python create_sdf_string function

 29 33  0  0  0  0  0  0  0  0999 V2000
    8.8270   -7.0288   18.4251 C   0  0  0  0  0  0  0  0  0  0  0  0
    9.1576   -4.6236   15.8860 O   0  0  0  0  0  0  0  0  0  0  0  0
    9.1509   -5.9108   17.7177 C   0  0  0  0  0  0  0  0  0  0  0  0
    3.6373   -9.5349   16.0582 N   0  0  0  0  0  0  0  0  0  0  0  0
    9.9275   -4.8001   18.0438 N   0  0  0  0  0  0  0  0  0  0  0  0
    8.5908   -5.7425   16.4412 C   0  0  0  0  0  0  0  0  0  0  0  0
   10.5993   -4.8981   21.6068 C   0  0  0  0  0  0  0  0  0  0  0  0
   10.4258   -3.0106   23.0998 C   0  0  0  0  0  0  0  0  0  0  0  0
   10.2148   -3.4364   25.4200 C   0  0  0  0  0  0  0  0  0  0  0  0
    9.7853   -1.1840   24.4927 C   0  0  0  0  0  0  0  0  0  0  0  0
    5.0276   -8.5227   17.5352 C   0  0  0  0  0  0  0  0  0  0  0  0
    9.8187   -2.0895   25.5800 C   0  0  0  0  0  0  0  0  0  0  0  0
    5.6473   -8.7216   15.3158 C   0  0  0  0  0  0  0  0  0  0  0  0
   10.7581   -3.1233   19.4720 N   0  0  0  0  0  0  0  0  0  0  0  0
    9.9571   -4.0573   16.8866 C   0  0  0  0  0  0  0  0  0  0  0  0
    7.6213   -6.5618   16.0087 C   0  0  0  0  0  0  0  0  0  0  0  0
   10.8583   -2.6527   20.7222 C   0  0  0  0  0  0  0  0  0  0  0  0
   10.6412   -3.5089   21.7936 C   0  0  0  0  0  0  0  0  0  0  0  0
   10.4972   -3.8968   24.1589 C   0  0  0  0  0  0  0  0  0  0  0  0
    5.9260   -8.2736   16.5517 C   0  0  0  0  0  0  0  0  0  0  0  0
    3.8816   -9.1166   17.2493 C   0  0  0  0  0  0  0  0  0  0  0  0
   10.1297   -1.6575   23.2324 C   0  0  0  0  0  0  0  0  0  0  0  0
    9.4684   -1.6929   26.7263 F   0  0  0  0  0  0  0  0  0  0  0  0
    7.7963   -7.7906   17.9837 C   0  0  0  0  0  0  0  0  0  0  0  0
   10.5884   -3.0725   16.7902 O   0  0  0  0  0  0  0  0  0  0  0  0
   10.4323   -5.3494   20.3516 C   0  0  0  0  0  0  0  0  0  0  0  0
    7.1156   -7.5454   16.8218 C   0  0  0  0  0  0  0  0  0  0  0  0
   10.3885   -4.4388   19.2773 C   0  0  0  0  0  0  0  0  0  0  0  0
    4.5160   -9.3822   15.0841 C   0  0  0  0  0  0  0  0  0  0  0  0
  1  3  4  0
  1 24  4  0
  2  6  4  0
  2 15  4  0
  3  5  4  0
  3  6  4  0
  4 21  4  0
  4 29  4  0
  5 15  4  0
  5 28  1  0
  6 16  4  0
  7 18  4  0
  7 26  4  0
  8 18  1  0
  8 19  4  0
  8 22  4  0
  9 12  4  0
  9 19  4  0
 10 12  4  0
 10 22  4  0
 11 20  4  0
 11 21  4  0
 12 23  1  0
 13 20  4  0
 13 29  4  0
 14 17  4  0
 14 28  4  0
 15 25  2  0
 16 27  4  0
 17 18  4  0
 20 27  1  0
 24 27  4  0
 26 28  4  0
M  END
$$$$

 Created by Python create_sdf_string function

 29 33  0  0  0  0  0  0  0  0999 V2000
    8.8270   -7.0288   18.4251 C   0  0  0  0  0  0  0  0  0  0  0  0
    9.1576   -4.6236   15.8860 O   0  0  0  0  0  0  0  0  0  0  0  0
    9.1509   -5.9108   17.7177 C   0  0  0  0  0  0  0  0  0  0  0  0
    3.6373   -9.5349   16.0582 N   0  0  0  0  0  0  0  0  0  0  0  0
    9.9275   -4.8001   18.0438 N   0  0  0  0  0  0  0  0  0  0  0  0
    8.5908   -5.7425   16.4412 C   0  0  0  0  0  0  0  0  0  0  0  0
   10.5993   -4.8981   21.6068 C   0  0  0  0  0  0  0  0  0  0  0  0
   10.4258   -3.0106   23.0998 C   0  0  0  0  0  0  0  0  0  0  0  0
   10.2148   -3.4364   25.4200 C   0  0  0  0  0  0  0  0  0  0  0  0
    9.7853   -1.1840   24.4927 C   0  0  0  0  0  0  0  0  0  0  0  0
    5.0276   -8.5227   17.5352 C   0  0  0  0  0  0  0  0  0  0  0  0
    9.8187   -2.0895   25.5800 C   0  0  0  0  0  0  0  0  0  0  0  0
    5.6473   -8.7216   15.3158 C   0  0  0  0  0  0  0  0  0  0  0  0
   10.7581   -3.1233   19.4720 N   0  0  0  0  0  0  0  0  0  0  0  0
    9.9571   -4.0573   16.8866 C   0  0  0  0  0  0  0  0  0  0  0  0
    7.6213   -6.5618   16.0087 C   0  0  0  0  0  0  0  0  0  0  0  0
   10.8583   -2.6527   20.7222 C   0  0  0  0  0  0  0  0  0  0  0  0
   10.6412   -3.5089   21.7936 C   0  0  0  0  0  0  0  0  0  0  0  0
   10.4972   -3.8968   24.1589 C   0  0  0  0  0  0  0  0  0  0  0  0
    5.9260   -8.2736   16.5517 C   0  0  0  0  0  0  0  0  0  0  0  0
    3.8816   -9.1166   17.2493 C   0  0  0  0  0  0  0  0  0  0  0  0
   10.1297   -1.6575   23.2324 C   0  0  0  0  0  0  0  0  0  0  0  0
    9.4684   -1.6929   26.7263 F   0  0  0  0  0  0  0  0  0  0  0  0
    7.7963   -7.7906   17.9837 C   0  0  0  0  0  0  0  0  0  0  0  0
   10.5884   -3.0725   16.7902 O   0  0  0  0  0  0  0  0  0  0  0  0
   10.4323   -5.3494   20.3516 C   0  0  0  0  0  0  0  0  0  0  0  0
    7.1156   -7.5454   16.8218 C   0  0  0  0  0  0  0  0  0  0  0  0
   10.3885   -4.4388   19.2773 C   0  0  0  0  0  0  0  0  0  0  0  0
    4.5160   -9.3822   15.0841 C   0  0  0  0  0  0  0  0  0  0  0  0
  1  3  4  0
  1 24  4  0
  2  6  4  0
  2 15  4  0
  3  5  4  0
  3  6  4  0
  4 21  4  0
  4 29  4  0
  5 15  4  0
  5 28  1  0
  6 16  4  0
  7 18  4  0
  7 26  4  0
  8 18  1  0
  8 19  4  0
  8 22  4  0
  9 12  4  0
  9 19  4  0
 10 12  4  0
 10 22  4  0
 11 20  4  0
 11 21  4  0
 12 23  1  0
 13 20  4  0
 13 29  4  0
 14 17  4  0
 14 28  4  0
 15 25  2  0
 16 27  4  0
 17 18  4  0
 20 27  1  0
 24 27  4  0
 26 28  4  0
M  END
$$$$

 Created by Python create_sdf_string function

 29 33  0  0  0  0  0  0  0  0999 V2000
    8.8270   -7.0288   18.4251 C   0  0  0  0  0  0  0  0  0  0  0  0
    9.1576   -4.6236   15.8860 O   0  0  0  0  0  0  0  0  0  0  0  0
    9.1509   -5.9108   17.7177 C   0  0  0  0  0  0  0  0  0  0  0  0
    3.6373   -9.5349   16.0582 N   0  0  0  0  0  0  0  0  0  0  0  0
    9.9275   -4.8001   18.0438 N   0  0  0  0  0  0  0  0  0  0  0  0
    8.5908   -5.7425   16.4412 C   0  0  0  0  0  0  0  0  0  0  0  0
   10.5993   -4.8981   21.6068 C   0  0  0  0  0  0  0  0  0  0  0  0
   10.4258   -3.0106   23.0998 C   0  0  0  0  0  0  0  0  0  0  0  0
   10.2148   -3.4364   25.4200 C   0  0  0  0  0  0  0  0  0  0  0  0
    9.7853   -1.1840   24.4927 C   0  0  0  0  0  0  0  0  0  0  0  0
    5.0276   -8.5227   17.5352 C   0  0  0  0  0  0  0  0  0  0  0  0
    9.8187   -2.0895   25.5800 C   0  0  0  0  0  0  0  0  0  0  0  0
    5.6473   -8.7216   15.3158 C   0  0  0  0  0  0  0  0  0  0  0  0
   10.7581   -3.1233   19.4720 N   0  0  0  0  0  0  0  0  0  0  0  0
    9.9571   -4.0573   16.8866 C   0  0  0  0  0  0  0  0  0  0  0  0
    7.6213   -6.5618   16.0087 C   0  0  0  0  0  0  0  0  0  0  0  0
   10.8583   -2.6527   20.7222 C   0  0  0  0  0  0  0  0  0  0  0  0
   10.6412   -3.5089   21.7936 C   0  0  0  0  0  0  0  0  0  0  0  0
   10.4972   -3.8968   24.1589 C   0  0  0  0  0  0  0  0  0  0  0  0
    5.9260   -8.2736   16.5517 C   0  0  0  0  0  0  0  0  0  0  0  0
    3.8816   -9.1166   17.2493 C   0  0  0  0  0  0  0  0  0  0  0  0
   10.1297   -1.6575   23.2324 C   0  0  0  0  0  0  0  0  0  0  0  0
    9.4684   -1.6929   26.7263 F   0  0  0  0  0  0  0  0  0  0  0  0
    7.7963   -7.7906   17.9837 C   0  0  0  0  0  0  0  0  0  0  0  0
   10.5884   -3.0725   16.7902 O   0  0  0  0  0  0  0  0  0  0  0  0
   10.4323   -5.3494   20.3516 C   0  0  0  0  0  0  0  0  0  0  0  0
    7.1156   -7.5454   16.8218 C   0  0  0  0  0  0  0  0  0  0  0  0
   10.3885   -4.4388   19.2773 C   0  0  0  0  0  0  0  0  0  0  0  0
    4.5160   -9.3822   15.0841 C   0  0  0  0  0  0  0  0  0  0  0  0
  1  3  4  0
  1 24  4  0
  2  6  4  0
  2 15  4  0
  3  5  4  0
  3  6  4  0
  4 21  4  0
  4 29  4  0
  5 15  4  0
  5 28  1  0
  6 16  4  0
  7 18  4  0
  7 26  4  0
  8 18  1  0
  8 19  4  0
  8 22  4  0
  9 12  4  0
  9 19  4  0
 10 12  4  0
 10 22  4  0
 11 20  4  0
 11 21  4  0
 12 23  1  0
 13 20  4  0
 13 29  4  0
 14 17  4  0
 14 28  4  0
 15 25  2  0
 16 27  4  0
 17 18  4  0
 20 27  1  0
 24 27  4  0
 26 28  4  0
M  END
$$$$

 Created by Python create_sdf_string function

 29 33  0  0  0  0  0  0  0  0999 V2000
    8.8270   -7.0288   18.4251 C   0  0  0  0  0  0  0  0  0  0  0  0
    9.1576   -4.6236   15.8860 O   0  0  0  0  0  0  0  0  0  0  0  0
    9.1509   -5.9108   17.7177 C   0  0  0  0  0  0  0  0  0  0  0  0
    3.6373   -9.5349   16.0582 N   0  0  0  0  0  0  0  0  0  0  0  0
    9.9275   -4.8001   18.0438 N   0  0  0  0  0  0  0  0  0  0  0  0
    8.5908   -5.7425   16.4412 C   0  0  0  0  0  0  0  0  0  0  0  0
   10.5993   -4.8981   21.6068 C   0  0  0  0  0  0  0  0  0  0  0  0
   10.4258   -3.0106   23.0998 C   0  0  0  0  0  0  0  0  0  0  0  0
   10.2148   -3.4364   25.4200 C   0  0  0  0  0  0  0  0  0  0  0  0
    9.7853   -1.1840   24.4927 C   0  0  0  0  0  0  0  0  0  0  0  0
    5.0276   -8.5227   17.5352 C   0  0  0  0  0  0  0  0  0  0  0  0
    9.8187   -2.0895   25.5800 C   0  0  0  0  0  0  0  0  0  0  0  0
    5.6473   -8.7216   15.3158 C   0  0  0  0  0  0  0  0  0  0  0  0
   10.7581   -3.1233   19.4720 N   0  0  0  0  0  0  0  0  0  0  0  0
    9.9571   -4.0573   16.8866 C   0  0  0  0  0  0  0  0  0  0  0  0
    7.6213   -6.5618   16.0087 C   0  0  0  0  0  0  0  0  0  0  0  0
   10.8583   -2.6527   20.7222 C   0  0  0  0  0  0  0  0  0  0  0  0
   10.6412   -3.5089   21.7936 C   0  0  0  0  0  0  0  0  0  0  0  0
   10.4972   -3.8968   24.1589 C   0  0  0  0  0  0  0  0  0  0  0  0
    5.9260   -8.2736   16.5517 C   0  0  0  0  0  0  0  0  0  0  0  0
    3.8816   -9.1166   17.2493 C   0  0  0  0  0  0  0  0  0  0  0  0
   10.1297   -1.6575   23.2324 C   0  0  0  0  0  0  0  0  0  0  0  0
    9.4684   -1.6929   26.7263 F   0  0  0  0  0  0  0  0  0  0  0  0
    7.7963   -7.7906   17.9837 C   0  0  0  0  0  0  0  0  0  0  0  0
   10.5884   -3.0725   16.7902 O   0  0  0  0  0  0  0  0  0  0  0  0
   10.4323   -5.3494   20.3516 C   0  0  0  0  0  0  0  0  0  0  0  0
    7.1156   -7.5454   16.8218 C   0  0  0  0  0  0  0  0  0  0  0  0
   10.3885   -4.4388   19.2773 C   0  0  0  0  0  0  0  0  0  0  0  0
    4.5160   -9.3822   15.0841 C   0  0  0  0  0  0  0  0  0  0  0  0
  1  3  4  0
  1 24  4  0
  2  6  4  0
  2 15  4  0
  3  5  4  0
  3  6  4  0
  4 21  4  0
  4 29  4  0
  5 15  4  0
  5 28  1  0
  6 16  4  0
  7 18  4  0
  7 26  4  0
  8 18  1  0
  8 19  4  0
  8 22  4  0
  9 12  4  0
  9 19  4  0
 10 12  4  0
 10 22  4  0
 11 20  4  0
 11 21  4  0
 12 23  1  0
 13 20  4  0
 13 29  4  0
 14 17  4  0
 14 28  4  0
 15 25  2  0
 16 27  4  0
 17 18  4  0
 20 27  1  0
 24 27  4  0
 26 28  4  0
M  END
$$$$

 Created by Python create_sdf_string function

 29 33  0  0  0  0  0  0  0  0999 V2000
    8.8270   -7.0288   18.4251 C   0  0  0  0  0  0  0  0  0  0  0  0
    9.1576   -4.6236   15.8860 O   0  0  0  0  0  0  0  0  0  0  0  0
    9.1509   -5.9108   17.7177 C   0  0  0  0  0  0  0  0  0  0  0  0
    3.6373   -9.5349   16.0582 N   0  0  0  0  0  0  0  0  0  0  0  0
    9.9275   -4.8001   18.0438 N   0  0  0  0  0  0  0  0  0  0  0  0
    8.5908   -5.7425   16.4412 C   0  0  0  0  0  0  0  0  0  0  0  0
   10.5993   -4.8981   21.6068 C   0  0  0  0  0  0  0  0  0  0  0  0
   10.4258   -3.0106   23.0998 C   0  0  0  0  0  0  0  0  0  0  0  0
   10.2148   -3.4364   25.4200 C   0  0  0  0  0  0  0  0  0  0  0  0
    9.7853   -1.1840   24.4927 C   0  0  0  0  0  0  0  0  0  0  0  0
    5.0276   -8.5227   17.5352 C   0  0  0  0  0  0  0  0  0  0  0  0
    9.8187   -2.0895   25.5800 C   0  0  0  0  0  0  0  0  0  0  0  0
    5.6473   -8.7216   15.3158 C   0  0  0  0  0  0  0  0  0  0  0  0
   10.7581   -3.1233   19.4720 N   0  0  0  0  0  0  0  0  0  0  0  0
    9.9571   -4.0573   16.8866 C   0  0  0  0  0  0  0  0  0  0  0  0
    7.6213   -6.5618   16.0087 C   0  0  0  0  0  0  0  0  0  0  0  0
   10.8583   -2.6527   20.7222 C   0  0  0  0  0  0  0  0  0  0  0  0
   10.6412   -3.5089   21.7936 C   0  0  0  0  0  0  0  0  0  0  0  0
   10.4972   -3.8968   24.1589 C   0  0  0  0  0  0  0  0  0  0  0  0
    5.9260   -8.2736   16.5517 C   0  0  0  0  0  0  0  0  0  0  0  0
    3.8816   -9.1166   17.2493 C   0  0  0  0  0  0  0  0  0  0  0  0
   10.1297   -1.6575   23.2324 C   0  0  0  0  0  0  0  0  0  0  0  0
    9.4684   -1.6929   26.7263 F   0  0  0  0  0  0  0  0  0  0  0  0
    7.7963   -7.7906   17.9837 C   0  0  0  0  0  0  0  0  0  0  0  0
   10.5884   -3.0725   16.7902 O   0  0  0  0  0  0  0  0  0  0  0  0
   10.4323   -5.3494   20.3516 C   0  0  0  0  0  0  0  0  0  0  0  0
    7.1156   -7.5454   16.8218 C   0  0  0  0  0  0  0  0  0  0  0  0
   10.3885   -4.4388   19.2773 C   0  0  0  0  0  0  0  0  0  0  0  0
    4.5160   -9.3822   15.0841 C   0  0  0  0  0  0  0  0  0  0  0  0
  1  3  4  0
  1 24  4  0
  2  6  4  0
  2 15  4  0
  3  5  4  0
  3  6  4  0
  4 21  4  0
  4 29  4  0
  5 15  4  0
  5 28  1  0
  6 16  4  0
  7 18  4  0
  7 26  4  0
  8 18  1  0
  8 19  4  0
  8 22  4  0
  9 12  4  0
  9 19  4  0
 10 12  4  0
 10 22  4  0
 11 20  4  0
 11 21  4  0
 12 23  1  0
 13 20  4  0
 13 29  4  0
 14 17  4  0
 14 28  4  0
 15 25  2  0
 16 27  4  0
 17 18  4  0
 20 27  1  0
 24 27  4  0
 26 28  4  0
M  END
$$$$

 Created by Python create_sdf_string function

 29 33  0  0  0  0  0  0  0  0999 V2000
    8.8270   -7.0288   18.4251 C   0  0  0  0  0  0  0  0  0  0  0  0
    9.1576   -4.6236   15.8860 O   0  0  0  0  0  0  0  0  0  0  0  0
    9.1509   -5.9108   17.7177 C   0  0  0  0  0  0  0  0  0  0  0  0
    3.6373   -9.5349   16.0582 N   0  0  0  0  0  0  0  0  0  0  0  0
    9.9275   -4.8001   18.0438 N   0  0  0  0  0  0  0  0  0  0  0  0
    8.5908   -5.7425   16.4412 C   0  0  0  0  0  0  0  0  0  0  0  0
   10.5993   -4.8981   21.6068 C   0  0  0  0  0  0  0  0  0  0  0  0
   10.4258   -3.0106   23.0998 C   0  0  0  0  0  0  0  0  0  0  0  0
   10.2148   -3.4364   25.4200 C   0  0  0  0  0  0  0  0  0  0  0  0
    9.7853   -1.1840   24.4927 C   0  0  0  0  0  0  0  0  0  0  0  0
    5.0276   -8.5227   17.5352 C   0  0  0  0  0  0  0  0  0  0  0  0
    9.8187   -2.0895   25.5800 C   0  0  0  0  0  0  0  0  0  0  0  0
    5.6473   -8.7216   15.3158 C   0  0  0  0  0  0  0  0  0  0  0  0
   10.7581   -3.1233   19.4720 N   0  0  0  0  0  0  0  0  0  0  0  0
    9.9571   -4.0573   16.8866 C   0  0  0  0  0  0  0  0  0  0  0  0
    7.6213   -6.5618   16.0087 C   0  0  0  0  0  0  0  0  0  0  0  0
   10.8583   -2.6527   20.7222 C   0  0  0  0  0  0  0  0  0  0  0  0
   10.6412   -3.5089   21.7936 C   0  0  0  0  0  0  0  0  0  0  0  0
   10.4972   -3.8968   24.1589 C   0  0  0  0  0  0  0  0  0  0  0  0
    5.9260   -8.2736   16.5517 C   0  0  0  0  0  0  0  0  0  0  0  0
    3.8816   -9.1166   17.2493 C   0  0  0  0  0  0  0  0  0  0  0  0
   10.1297   -1.6575   23.2324 C   0  0  0  0  0  0  0  0  0  0  0  0
    9.4684   -1.6929   26.7263 F   0  0  0  0  0  0  0  0  0  0  0  0
    7.7963   -7.7906   17.9837 C   0  0  0  0  0  0  0  0  0  0  0  0
   10.5884   -3.0725   16.7902 O   0  0  0  0  0  0  0  0  0  0  0  0
   10.4323   -5.3494   20.3516 C   0  0  0  0  0  0  0  0  0  0  0  0
    7.1156   -7.5454   16.8218 C   0  0  0  0  0  0  0  0  0  0  0  0
   10.3885   -4.4388   19.2773 C   0  0  0  0  0  0  0  0  0  0  0  0
    4.5160   -9.3822   15.0841 C   0  0  0  0  0  0  0  0  0  0  0  0
  1  3  4  0
  1 24  4  0
  2  6  4  0
  2 15  4  0
  3  5  4  0
  3  6  4  0
  4 21  4  0
  4 29  4  0
  5 15  4  0
  5 28  1  0
  6 16  4  0
  7 18  4  0
  7 26  4  0
  8 18  1  0
  8 19  4  0
  8 22  4  0
  9 12  4  0
  9 19  4  0
 10 12  4  0
 10 22  4  0
 11 20  4  0
 11 21  4  0
 12 23  1  0
 13 20  4  0
 13 29  4  0
 14 17  4  0
 14 28  4  0
 15 25  2  0
 16 27  4  0
 17 18  4  0
 20 27  1  0
 24 27  4  0
 26 28  4  0
M  END
$$$$

 Created by Python create_sdf_string function

 29 33  0  0  0  0  0  0  0  0999 V2000
    8.8270   -7.0288   18.4251 C   0  0  0  0  0  0  0  0  0  0  0  0
    9.1576   -4.6236   15.8860 O   0  0  0  0  0  0  0  0  0  0  0  0
    9.1509   -5.9108   17.7177 C   0  0  0  0  0  0  0  0  0  0  0  0
    3.6373   -9.5349   16.0582 N   0  0  0  0  0  0  0  0  0  0  0  0
    9.9275   -4.8001   18.0438 N   0  0  0  0  0  0  0  0  0  0  0  0
    8.5908   -5.7425   16.4412 C   0  0  0  0  0  0  0  0  0  0  0  0
   10.5993   -4.8981   21.6068 C   0  0  0  0  0  0  0  0  0  0  0  0
   10.4258   -3.0106   23.0998 C   0  0  0  0  0  0  0  0  0  0  0  0
   10.2148   -3.4364   25.4200 C   0  0  0  0  0  0  0  0  0  0  0  0
    9.7853   -1.1840   24.4927 C   0  0  0  0  0  0  0  0  0  0  0  0
    5.0276   -8.5227   17.5352 C   0  0  0  0  0  0  0  0  0  0  0  0
    9.8187   -2.0895   25.5800 C   0  0  0  0  0  0  0  0  0  0  0  0
    5.6473   -8.7216   15.3158 C   0  0  0  0  0  0  0  0  0  0  0  0
   10.7581   -3.1233   19.4720 N   0  0  0  0  0  0  0  0  0  0  0  0
    9.9571   -4.0573   16.8866 C   0  0  0  0  0  0  0  0  0  0  0  0
    7.6213   -6.5618   16.0087 C   0  0  0  0  0  0  0  0  0  0  0  0
   10.8583   -2.6527   20.7222 C   0  0  0  0  0  0  0  0  0  0  0  0
   10.6412   -3.5089   21.7936 C   0  0  0  0  0  0  0  0  0  0  0  0
   10.4972   -3.8968   24.1589 C   0  0  0  0  0  0  0  0  0  0  0  0
    5.9260   -8.2736   16.5517 C   0  0  0  0  0  0  0  0  0  0  0  0
    3.8816   -9.1166   17.2493 C   0  0  0  0  0  0  0  0  0  0  0  0
   10.1297   -1.6575   23.2324 C   0  0  0  0  0  0  0  0  0  0  0  0
    9.4684   -1.6929   26.7263 F   0  0  0  0  0  0  0  0  0  0  0  0
    7.7963   -7.7906   17.9837 C   0  0  0  0  0  0  0  0  0  0  0  0
   10.5884   -3.0725   16.7902 O   0  0  0  0  0  0  0  0  0  0  0  0
   10.4323   -5.3494   20.3516 C   0  0  0  0  0  0  0  0  0  0  0  0
    7.1156   -7.5454   16.8218 C   0  0  0  0  0  0  0  0  0  0  0  0
   10.3885   -4.4388   19.2773 C   0  0  0  0  0  0  0  0  0  0  0  0
    4.5160   -9.3822   15.0841 C   0  0  0  0  0  0  0  0  0  0  0  0
  1  3  4  0
  1 24  4  0
  2  6  4  0
  2 15  4  0
  3  5  4  0
  3  6  4  0
  4 21  4  0
  4 29  4  0
  5 15  4  0
  5 28  1  0
  6 16  4  0
  7 18  4  0
  7 26  4  0
  8 18  1  0
  8 19  4  0
  8 22  4  0
  9 12  4  0
  9 19  4  0
 10 12  4  0
 10 22  4  0
 11 20  4  0
 11 21  4  0
 12 23  1  0
 13 20  4  0
 13 29  4  0
 14 17  4  0
 14 28  4  0
 15 25  2  0
 16 27  4  0
 17 18  4  0
 20 27  1  0
 24 27  4  0
 26 28  4  0
M  END
$$$$

 Created by Python create_sdf_string function

 29 33  0  0  0  0  0  0  0  0999 V2000
    8.8270   -7.0288   18.4251 C   0  0  0  0  0  0  0  0  0  0  0  0
    9.1576   -4.6236   15.8860 O   0  0  0  0  0  0  0  0  0  0  0  0
    9.1509   -5.9108   17.7177 C   0  0  0  0  0  0  0  0  0  0  0  0
    3.6373   -9.5349   16.0582 N   0  0  0  0  0  0  0  0  0  0  0  0
    9.9275   -4.8001   18.0438 N   0  0  0  0  0  0  0  0  0  0  0  0
    8.5908   -5.7425   16.4412 C   0  0  0  0  0  0  0  0  0  0  0  0
   10.5993   -4.8981   21.6068 C   0  0  0  0  0  0  0  0  0  0  0  0
   10.4258   -3.0106   23.0998 C   0  0  0  0  0  0  0  0  0  0  0  0
   10.2148   -3.4364   25.4200 C   0  0  0  0  0  0  0  0  0  0  0  0
    9.7853   -1.1840   24.4927 C   0  0  0  0  0  0  0  0  0  0  0  0
    5.0276   -8.5227   17.5352 C   0  0  0  0  0  0  0  0  0  0  0  0
    9.8187   -2.0895   25.5800 C   0  0  0  0  0  0  0  0  0  0  0  0
    5.6473   -8.7216   15.3158 C   0  0  0  0  0  0  0  0  0  0  0  0
   10.7581   -3.1233   19.4720 N   0  0  0  0  0  0  0  0  0  0  0  0
    9.9571   -4.0573   16.8866 C   0  0  0  0  0  0  0  0  0  0  0  0
    7.6213   -6.5618   16.0087 C   0  0  0  0  0  0  0  0  0  0  0  0
   10.8583   -2.6527   20.7222 C   0  0  0  0  0  0  0  0  0  0  0  0
   10.6412   -3.5089   21.7936 C   0  0  0  0  0  0  0  0  0  0  0  0
   10.4972   -3.8968   24.1589 C   0  0  0  0  0  0  0  0  0  0  0  0
    5.9260   -8.2736   16.5517 C   0  0  0  0  0  0  0  0  0  0  0  0
    3.8816   -9.1166   17.2493 C   0  0  0  0  0  0  0  0  0  0  0  0
   10.1297   -1.6575   23.2324 C   0  0  0  0  0  0  0  0  0  0  0  0
    9.4684   -1.6929   26.7263 F   0  0  0  0  0  0  0  0  0  0  0  0
    7.7963   -7.7906   17.9837 C   0  0  0  0  0  0  0  0  0  0  0  0
   10.5884   -3.0725   16.7902 O   0  0  0  0  0  0  0  0  0  0  0  0
   10.4323   -5.3494   20.3516 C   0  0  0  0  0  0  0  0  0  0  0  0
    7.1156   -7.5454   16.8218 C   0  0  0  0  0  0  0  0  0  0  0  0
   10.3885   -4.4388   19.2773 C   0  0  0  0  0  0  0  0  0  0  0  0
    4.5160   -9.3822   15.0841 C   0  0  0  0  0  0  0  0  0  0  0  0
  1  3  4  0
  1 24  4  0
  2  6  4  0
  2 15  4  0
  3  5  4  0
  3  6  4  0
  4 21  4  0
  4 29  4  0
  5 15  4  0
  5 28  1  0
  6 16  4  0
  7 18  4  0
  7 26  4  0
  8 18  1  0
  8 19  4  0
  8 22  4  0
  9 12  4  0
  9 19  4  0
 10 12  4  0
 10 22  4  0
 11 20  4  0
 11 21  4  0
 12 23  1  0
 13 20  4  0
 13 29  4  0
 14 17  4  0
 14 28  4  0
 15 25  2  0
 16 27  4  0
 17 18  4  0
 20 27  1  0
 24 27  4  0
 26 28  4  0
M  END
$$$$

 Created by Python create_sdf_string function

 29 33  0  0  0  0  0  0  0  0999 V2000
    8.8270   -7.0288   18.4251 C   0  0  0  0  0  0  0  0  0  0  0  0
    9.1576   -4.6236   15.8860 O   0  0  0  0  0  0  0  0  0  0  0  0
    9.1509   -5.9108   17.7177 C   0  0  0  0  0  0  0  0  0  0  0  0
    3.6373   -9.5349   16.0582 N   0  0  0  0  0  0  0  0  0  0  0  0
    9.9275   -4.8001   18.0438 N   0  0  0  0  0  0  0  0  0  0  0  0
    8.5908   -5.7425   16.4412 C   0  0  0  0  0  0  0  0  0  0  0  0
   10.5993   -4.8981   21.6068 C   0  0  0  0  0  0  0  0  0  0  0  0
   10.4258   -3.0106   23.0998 C   0  0  0  0  0  0  0  0  0  0  0  0
   10.2148   -3.4364   25.4200 C   0  0  0  0  0  0  0  0  0  0  0  0
    9.7853   -1.1840   24.4927 C   0  0  0  0  0  0  0  0  0  0  0  0
    5.0276   -8.5227   17.5352 C   0  0  0  0  0  0  0  0  0  0  0  0
    9.8187   -2.0895   25.5800 C   0  0  0  0  0  0  0  0  0  0  0  0
    5.6473   -8.7216   15.3158 C   0  0  0  0  0  0  0  0  0  0  0  0
   10.7581   -3.1233   19.4720 N   0  0  0  0  0  0  0  0  0  0  0  0
    9.9571   -4.0573   16.8866 C   0  0  0  0  0  0  0  0  0  0  0  0
    7.6213   -6.5618   16.0087 C   0  0  0  0  0  0  0  0  0  0  0  0
   10.8583   -2.6527   20.7222 C   0  0  0  0  0  0  0  0  0  0  0  0
   10.6412   -3.5089   21.7936 C   0  0  0  0  0  0  0  0  0  0  0  0
   10.4972   -3.8968   24.1589 C   0  0  0  0  0  0  0  0  0  0  0  0
    5.9260   -8.2736   16.5517 C   0  0  0  0  0  0  0  0  0  0  0  0
    3.8816   -9.1166   17.2493 C   0  0  0  0  0  0  0  0  0  0  0  0
   10.1297   -1.6575   23.2324 C   0  0  0  0  0  0  0  0  0  0  0  0
    9.4684   -1.6929   26.7263 F   0  0  0  0  0  0  0  0  0  0  0  0
    7.7963   -7.7906   17.9837 C   0  0  0  0  0  0  0  0  0  0  0  0
   10.5884   -3.0725   16.7902 O   0  0  0  0  0  0  0  0  0  0  0  0
   10.4323   -5.3494   20.3516 C   0  0  0  0  0  0  0  0  0  0  0  0
    7.1156   -7.5454   16.8218 C   0  0  0  0  0  0  0  0  0  0  0  0
   10.3885   -4.4388   19.2773 C   0  0  0  0  0  0  0  0  0  0  0  0
    4.5160   -9.3822   15.0841 C   0  0  0  0  0  0  0  0  0  0  0  0
  1  3  4  0
  1 24  4  0
  2  6  4  0
  2 15  4  0
  3  5  4  0
  3  6  4  0
  4 21  4  0
  4 29  4  0
  5 15  4  0
  5 28  1  0
  6 16  4  0
  7 18  4  0
  7 26  4  0
  8 18  1  0
  8 19  4  0
  8 22  4  0
  9 12  4  0
  9 19  4  0
 10 12  4  0
 10 22  4  0
 11 20  4  0
 11 21  4  0
 12 23  1  0
 13 20  4  0
 13 29  4  0
 14 17  4  0
 14 28  4  0
 15 25  2  0
 16 27  4  0
 17 18  4  0
 20 27  1  0
 24 27  4  0
 26 28  4  0
M  END
$$$$

 Created by Python create_sdf_string function

 29 33  0  0  0  0  0  0  0  0999 V2000
    8.8270   -7.0288   18.4251 C   0  0  0  0  0  0  0  0  0  0  0  0
    9.1576   -4.6236   15.8860 O   0  0  0  0  0  0  0  0  0  0  0  0
    9.1509   -5.9108   17.7177 C   0  0  0  0  0  0  0  0  0  0  0  0
    3.6373   -9.5349   16.0582 N   0  0  0  0  0  0  0  0  0  0  0  0
    9.9275   -4.8001   18.0438 N   0  0  0  0  0  0  0  0  0  0  0  0
    8.5908   -5.7425   16.4412 C   0  0  0  0  0  0  0  0  0  0  0  0
   10.5993   -4.8981   21.6068 C   0  0  0  0  0  0  0  0  0  0  0  0
   10.4258   -3.0106   23.0998 C   0  0  0  0  0  0  0  0  0  0  0  0
   10.2148   -3.4364   25.4200 C   0  0  0  0  0  0  0  0  0  0  0  0
    9.7853   -1.1840   24.4927 C   0  0  0  0  0  0  0  0  0  0  0  0
    5.0276   -8.5227   17.5352 C   0  0  0  0  0  0  0  0  0  0  0  0
    9.8187   -2.0895   25.5800 C   0  0  0  0  0  0  0  0  0  0  0  0
    5.6473   -8.7216   15.3158 C   0  0  0  0  0  0  0  0  0  0  0  0
   10.7581   -3.1233   19.4720 N   0  0  0  0  0  0  0  0  0  0  0  0
    9.9571   -4.0573   16.8866 C   0  0  0  0  0  0  0  0  0  0  0  0
    7.6213   -6.5618   16.0087 C   0  0  0  0  0  0  0  0  0  0  0  0
   10.8583   -2.6527   20.7222 C   0  0  0  0  0  0  0  0  0  0  0  0
   10.6412   -3.5089   21.7936 C   0  0  0  0  0  0  0  0  0  0  0  0
   10.4972   -3.8968   24.1589 C   0  0  0  0  0  0  0  0  0  0  0  0
    5.9260   -8.2736   16.5517 C   0  0  0  0  0  0  0  0  0  0  0  0
    3.8816   -9.1166   17.2493 C   0  0  0  0  0  0  0  0  0  0  0  0
   10.1297   -1.6575   23.2324 C   0  0  0  0  0  0  0  0  0  0  0  0
    9.4684   -1.6929   26.7263 F   0  0  0  0  0  0  0  0  0  0  0  0
    7.7963   -7.7906   17.9837 C   0  0  0  0  0  0  0  0  0  0  0  0
   10.5884   -3.0725   16.7902 O   0  0  0  0  0  0  0  0  0  0  0  0
   10.4323   -5.3494   20.3516 C   0  0  0  0  0  0  0  0  0  0  0  0
    7.1156   -7.5454   16.8218 C   0  0  0  0  0  0  0  0  0  0  0  0
   10.3885   -4.4388   19.2773 C   0  0  0  0  0  0  0  0  0  0  0  0
    4.5160   -9.3822   15.0841 C   0  0  0  0  0  0  0  0  0  0  0  0
  1  3  4  0
  1 24  4  0
  2  6  4  0
  2 15  4  0
  3  5  4  0
  3  6  4  0
  4 21  4  0
  4 29  4  0
  5 15  4  0
  5 28  1  0
  6 16  4  0
  7 18  4  0
  7 26  4  0
  8 18  1  0
  8 19  4  0
  8 22  4  0
  9 12  4  0
  9 19  4  0
 10 12  4  0
 10 22  4  0
 11 20  4  0
 11 21  4  0
 12 23  1  0
 13 20  4  0
 13 29  4  0
 14 17  4  0
 14 28  4  0
 15 25  2  0
 16 27  4  0
 17 18  4  0
 20 27  1  0
 24 27  4  0
 26 28  4  0
M  END
$$$$

 Created by Python create_sdf_string function

 29 33  0  0  0  0  0  0  0  0999 V2000
    8.8270   -7.0288   18.4251 C   0  0  0  0  0  0  0  0  0  0  0  0
    9.1576   -4.6236   15.8860 O   0  0  0  0  0  0  0  0  0  0  0  0
    9.1509   -5.9108   17.7177 C   0  0  0  0  0  0  0  0  0  0  0  0
    3.6373   -9.5349   16.0582 N   0  0  0  0  0  0  0  0  0  0  0  0
    9.9275   -4.8001   18.0438 N   0  0  0  0  0  0  0  0  0  0  0  0
    8.5908   -5.7425   16.4412 C   0  0  0  0  0  0  0  0  0  0  0  0
   10.5993   -4.8981   21.6068 C   0  0  0  0  0  0  0  0  0  0  0  0
   10.4258   -3.0106   23.0998 C   0  0  0  0  0  0  0  0  0  0  0  0
   10.2148   -3.4364   25.4200 C   0  0  0  0  0  0  0  0  0  0  0  0
    9.7853   -1.1840   24.4927 C   0  0  0  0  0  0  0  0  0  0  0  0
    5.0276   -8.5227   17.5352 C   0  0  0  0  0  0  0  0  0  0  0  0
    9.8187   -2.0895   25.5800 C   0  0  0  0  0  0  0  0  0  0  0  0
    5.6473   -8.7216   15.3158 C   0  0  0  0  0  0  0  0  0  0  0  0
   10.7581   -3.1233   19.4720 N   0  0  0  0  0  0  0  0  0  0  0  0
    9.9571   -4.0573   16.8866 C   0  0  0  0  0  0  0  0  0  0  0  0
    7.6213   -6.5618   16.0087 C   0  0  0  0  0  0  0  0  0  0  0  0
   10.8583   -2.6527   20.7222 C   0  0  0  0  0  0  0  0  0  0  0  0
   10.6412   -3.5089   21.7936 C   0  0  0  0  0  0  0  0  0  0  0  0
   10.4972   -3.8968   24.1589 C   0  0  0  0  0  0  0  0  0  0  0  0
    5.9260   -8.2736   16.5517 C   0  0  0  0  0  0  0  0  0  0  0  0
    3.8816   -9.1166   17.2493 C   0  0  0  0  0  0  0  0  0  0  0  0
   10.1297   -1.6575   23.2324 C   0  0  0  0  0  0  0  0  0  0  0  0
    9.4684   -1.6929   26.7263 F   0  0  0  0  0  0  0  0  0  0  0  0
    7.7963   -7.7906   17.9837 C   0  0  0  0  0  0  0  0  0  0  0  0
   10.5884   -3.0725   16.7902 O   0  0  0  0  0  0  0  0  0  0  0  0
   10.4323   -5.3494   20.3516 C   0  0  0  0  0  0  0  0  0  0  0  0
    7.1156   -7.5454   16.8218 C   0  0  0  0  0  0  0  0  0  0  0  0
   10.3885   -4.4388   19.2773 C   0  0  0  0  0  0  0  0  0  0  0  0
    4.5160   -9.3822   15.0841 C   0  0  0  0  0  0  0  0  0  0  0  0
  1  3  4  0
  1 24  4  0
  2  6  4  0
  2 15  4  0
  3  5  4  0
  3  6  4  0
  4 21  4  0
  4 29  4  0
  5 15  4  0
  5 28  1  0
  6 16  4  0
  7 18  4  0
  7 26  4  0
  8 18  1  0
  8 19  4  0
  8 22  4  0
  9 12  4  0
  9 19  4  0
 10 12  4  0
 10 22  4  0
 11 20  4  0
 11 21  4  0
 12 23  1  0
 13 20  4  0
 13 29  4  0
 14 17  4  0
 14 28  4  0
 15 25  2  0
 16 27  4  0
 17 18  4  0
 20 27  1  0
 24 27  4  0
 26 28  4  0
M  END
$$$$

 Created by Python create_sdf_string function

 29 33  0  0  0  0  0  0  0  0999 V2000
    8.8270   -7.0288   18.4251 C   0  0  0  0  0  0  0  0  0  0  0  0
    9.1576   -4.6236   15.8860 O   0  0  0  0  0  0  0  0  0  0  0  0
    9.1509   -5.9108   17.7177 C   0  0  0  0  0  0  0  0  0  0  0  0
    3.6373   -9.5349   16.0582 N   0  0  0  0  0  0  0  0  0  0  0  0
    9.9275   -4.8001   18.0438 N   0  0  0  0  0  0  0  0  0  0  0  0
    8.5908   -5.7425   16.4412 C   0  0  0  0  0  0  0  0  0  0  0  0
   10.5993   -4.8981   21.6068 C   0  0  0  0  0  0  0  0  0  0  0  0
   10.4258   -3.0106   23.0998 C   0  0  0  0  0  0  0  0  0  0  0  0
   10.2148   -3.4364   25.4200 C   0  0  0  0  0  0  0  0  0  0  0  0
    9.7853   -1.1840   24.4927 C   0  0  0  0  0  0  0  0  0  0  0  0
    5.0276   -8.5227   17.5352 C   0  0  0  0  0  0  0  0  0  0  0  0
    9.8187   -2.0895   25.5800 C   0  0  0  0  0  0  0  0  0  0  0  0
    5.6473   -8.7216   15.3158 C   0  0  0  0  0  0  0  0  0  0  0  0
   10.7581   -3.1233   19.4720 N   0  0  0  0  0  0  0  0  0  0  0  0
    9.9571   -4.0573   16.8866 C   0  0  0  0  0  0  0  0  0  0  0  0
    7.6213   -6.5618   16.0087 C   0  0  0  0  0  0  0  0  0  0  0  0
   10.8583   -2.6527   20.7222 C   0  0  0  0  0  0  0  0  0  0  0  0
   10.6412   -3.5089   21.7936 C   0  0  0  0  0  0  0  0  0  0  0  0
   10.4972   -3.8968   24.1589 C   0  0  0  0  0  0  0  0  0  0  0  0
    5.9260   -8.2736   16.5517 C   0  0  0  0  0  0  0  0  0  0  0  0
    3.8816   -9.1166   17.2493 C   0  0  0  0  0  0  0  0  0  0  0  0
   10.1297   -1.6575   23.2324 C   0  0  0  0  0  0  0  0  0  0  0  0
    9.4684   -1.6929   26.7263 F   0  0  0  0  0  0  0  0  0  0  0  0
    7.7963   -7.7906   17.9837 C   0  0  0  0  0  0  0  0  0  0  0  0
   10.5884   -3.0725   16.7902 O   0  0  0  0  0  0  0  0  0  0  0  0
   10.4323   -5.3494   20.3516 C   0  0  0  0  0  0  0  0  0  0  0  0
    7.1156   -7.5454   16.8218 C   0  0  0  0  0  0  0  0  0  0  0  0
   10.3885   -4.4388   19.2773 C   0  0  0  0  0  0  0  0  0  0  0  0
    4.5160   -9.3822   15.0841 C   0  0  0  0  0  0  0  0  0  0  0  0
  1  3  4  0
  1 24  4  0
  2  6  4  0
  2 15  4  0
  3  5  4  0
  3  6  4  0
  4 21  4  0
  4 29  4  0
  5 15  4  0
  5 28  1  0
  6 16  4  0
  7 18  4  0
  7 26  4  0
  8 18  1  0
  8 19  4  0
  8 22  4  0
  9 12  4  0
  9 19  4  0
 10 12  4  0
 10 22  4  0
 11 20  4  0
 11 21  4  0
 12 23  1  0
 13 20  4  0
 13 29  4  0
 14 17  4  0
 14 28  4  0
 15 25  2  0
 16 27  4  0
 17 18  4  0
 20 27  1  0
 24 27  4  0
 26 28  4  0
M  END
$$$$

 Created by Python create_sdf_string function

 29 33  0  0  0  0  0  0  0  0999 V2000
    8.8270   -7.0288   18.4251 C   0  0  0  0  0  0  0  0  0  0  0  0
    9.1576   -4.6236   15.8860 O   0  0  0  0  0  0  0  0  0  0  0  0
    9.1509   -5.9108   17.7177 C   0  0  0  0  0  0  0  0  0  0  0  0
    3.6373   -9.5349   16.0582 N   0  0  0  0  0  0  0  0  0  0  0  0
    9.9275   -4.8001   18.0438 N   0  0  0  0  0  0  0  0  0  0  0  0
    8.5908   -5.7425   16.4412 C   0  0  0  0  0  0  0  0  0  0  0  0
   10.5993   -4.8981   21.6068 C   0  0  0  0  0  0  0  0  0  0  0  0
   10.4258   -3.0106   23.0998 C   0  0  0  0  0  0  0  0  0  0  0  0
   10.2148   -3.4364   25.4200 C   0  0  0  0  0  0  0  0  0  0  0  0
    9.7853   -1.1840   24.4927 C   0  0  0  0  0  0  0  0  0  0  0  0
    5.0276   -8.5227   17.5352 C   0  0  0  0  0  0  0  0  0  0  0  0
    9.8187   -2.0895   25.5800 C   0  0  0  0  0  0  0  0  0  0  0  0
    5.6473   -8.7216   15.3158 C   0  0  0  0  0  0  0  0  0  0  0  0
   10.7581   -3.1233   19.4720 N   0  0  0  0  0  0  0  0  0  0  0  0
    9.9571   -4.0573   16.8866 C   0  0  0  0  0  0  0  0  0  0  0  0
    7.6213   -6.5618   16.0087 C   0  0  0  0  0  0  0  0  0  0  0  0
   10.8583   -2.6527   20.7222 C   0  0  0  0  0  0  0  0  0  0  0  0
   10.6412   -3.5089   21.7936 C   0  0  0  0  0  0  0  0  0  0  0  0
   10.4972   -3.8968   24.1589 C   0  0  0  0  0  0  0  0  0  0  0  0
    5.9260   -8.2736   16.5517 C   0  0  0  0  0  0  0  0  0  0  0  0
    3.8816   -9.1166   17.2493 C   0  0  0  0  0  0  0  0  0  0  0  0
   10.1297   -1.6575   23.2324 C   0  0  0  0  0  0  0  0  0  0  0  0
    9.4684   -1.6929   26.7263 F   0  0  0  0  0  0  0  0  0  0  0  0
    7.7963   -7.7906   17.9837 C   0  0  0  0  0  0  0  0  0  0  0  0
   10.5884   -3.0725   16.7902 O   0  0  0  0  0  0  0  0  0  0  0  0
   10.4323   -5.3494   20.3516 C   0  0  0  0  0  0  0  0  0  0  0  0
    7.1156   -7.5454   16.8218 C   0  0  0  0  0  0  0  0  0  0  0  0
   10.3885   -4.4388   19.2773 C   0  0  0  0  0  0  0  0  0  0  0  0
    4.5160   -9.3822   15.0841 C   0  0  0  0  0  0  0  0  0  0  0  0
  1  3  4  0
  1 24  4  0
  2  6  4  0
  2 15  4  0
  3  5  4  0
  3  6  4  0
  4 21  4  0
  4 29  4  0
  5 15  4  0
  5 28  1  0
  6 16  4  0
  7 18  4  0
  7 26  4  0
  8 18  1  0
  8 19  4  0
  8 22  4  0
  9 12  4  0
  9 19  4  0
 10 12  4  0
 10 22  4  0
 11 20  4  0
 11 21  4  0
 12 23  1  0
 13 20  4  0
 13 29  4  0
 14 17  4  0
 14 28  4  0
 15 25  2  0
 16 27  4  0
 17 18  4  0
 20 27  1  0
 24 27  4  0
 26 28  4  0
M  END
$$$$

 Created by Python create_sdf_string function

 29 33  0  0  0  0  0  0  0  0999 V2000
    8.8270   -7.0288   18.4251 C   0  0  0  0  0  0  0  0  0  0  0  0
    9.1576   -4.6236   15.8860 O   0  0  0  0  0  0  0  0  0  0  0  0
    9.1509   -5.9108   17.7177 C   0  0  0  0  0  0  0  0  0  0  0  0
    3.6373   -9.5349   16.0582 N   0  0  0  0  0  0  0  0  0  0  0  0
    9.9275   -4.8001   18.0438 N   0  0  0  0  0  0  0  0  0  0  0  0
    8.5908   -5.7425   16.4412 C   0  0  0  0  0  0  0  0  0  0  0  0
   10.5993   -4.8981   21.6068 C   0  0  0  0  0  0  0  0  0  0  0  0
   10.4258   -3.0106   23.0998 C   0  0  0  0  0  0  0  0  0  0  0  0
   10.2148   -3.4364   25.4200 C   0  0  0  0  0  0  0  0  0  0  0  0
    9.7853   -1.1840   24.4927 C   0  0  0  0  0  0  0  0  0  0  0  0
    5.0276   -8.5227   17.5352 C   0  0  0  0  0  0  0  0  0  0  0  0
    9.8187   -2.0895   25.5800 C   0  0  0  0  0  0  0  0  0  0  0  0
    5.6473   -8.7216   15.3158 C   0  0  0  0  0  0  0  0  0  0  0  0
   10.7581   -3.1233   19.4720 N   0  0  0  0  0  0  0  0  0  0  0  0
    9.9571   -4.0573   16.8866 C   0  0  0  0  0  0  0  0  0  0  0  0
    7.6213   -6.5618   16.0087 C   0  0  0  0  0  0  0  0  0  0  0  0
   10.8583   -2.6527   20.7222 C   0  0  0  0  0  0  0  0  0  0  0  0
   10.6412   -3.5089   21.7936 C   0  0  0  0  0  0  0  0  0  0  0  0
   10.4972   -3.8968   24.1589 C   0  0  0  0  0  0  0  0  0  0  0  0
    5.9260   -8.2736   16.5517 C   0  0  0  0  0  0  0  0  0  0  0  0
    3.8816   -9.1166   17.2493 C   0  0  0  0  0  0  0  0  0  0  0  0
   10.1297   -1.6575   23.2324 C   0  0  0  0  0  0  0  0  0  0  0  0
    9.4684   -1.6929   26.7263 F   0  0  0  0  0  0  0  0  0  0  0  0
    7.7963   -7.7906   17.9837 C   0  0  0  0  0  0  0  0  0  0  0  0
   10.5884   -3.0725   16.7902 O   0  0  0  0  0  0  0  0  0  0  0  0
   10.4323   -5.3494   20.3516 C   0  0  0  0  0  0  0  0  0  0  0  0
    7.1156   -7.5454   16.8218 C   0  0  0  0  0  0  0  0  0  0  0  0
   10.3885   -4.4388   19.2773 C   0  0  0  0  0  0  0  0  0  0  0  0
    4.5160   -9.3822   15.0841 C   0  0  0  0  0  0  0  0  0  0  0  0
  1  3  4  0
  1 24  4  0
  2  6  4  0
  2 15  4  0
  3  5  4  0
  3  6  4  0
  4 21  4  0
  4 29  4  0
  5 15  4  0
  5 28  1  0
  6 16  4  0
  7 18  4  0
  7 26  4  0
  8 18  1  0
  8 19  4  0
  8 22  4  0
  9 12  4  0
  9 19  4  0
 10 12  4  0
 10 22  4  0
 11 20  4  0
 11 21  4  0
 12 23  1  0
 13 20  4  0
 13 29  4  0
 14 17  4  0
 14 28  4  0
 15 25  2  0
 16 27  4  0
 17 18  4  0
 20 27  1  0
 24 27  4  0
 26 28  4  0
M  END
$$$$

 Created by Python create_sdf_string function

 29 33  0  0  0  0  0  0  0  0999 V2000
    8.8270   -7.0288   18.4251 C   0  0  0  0  0  0  0  0  0  0  0  0
    9.1576   -4.6236   15.8860 O   0  0  0  0  0  0  0  0  0  0  0  0
    9.1509   -5.9108   17.7177 C   0  0  0  0  0  0  0  0  0  0  0  0
    3.6373   -9.5349   16.0582 N   0  0  0  0  0  0  0  0  0  0  0  0
    9.9275   -4.8001   18.0438 N   0  0  0  0  0  0  0  0  0  0  0  0
    8.5908   -5.7425   16.4412 C   0  0  0  0  0  0  0  0  0  0  0  0
   10.5993   -4.8981   21.6068 C   0  0  0  0  0  0  0  0  0  0  0  0
   10.4258   -3.0106   23.0998 C   0  0  0  0  0  0  0  0  0  0  0  0
   10.2148   -3.4364   25.4200 C   0  0  0  0  0  0  0  0  0  0  0  0
    9.7853   -1.1840   24.4927 C   0  0  0  0  0  0  0  0  0  0  0  0
    5.0276   -8.5227   17.5352 C   0  0  0  0  0  0  0  0  0  0  0  0
    9.8187   -2.0895   25.5800 C   0  0  0  0  0  0  0  0  0  0  0  0
    5.6473   -8.7216   15.3158 C   0  0  0  0  0  0  0  0  0  0  0  0
   10.7581   -3.1233   19.4720 N   0  0  0  0  0  0  0  0  0  0  0  0
    9.9571   -4.0573   16.8866 C   0  0  0  0  0  0  0  0  0  0  0  0
    7.6213   -6.5618   16.0087 C   0  0  0  0  0  0  0  0  0  0  0  0
   10.8583   -2.6527   20.7222 C   0  0  0  0  0  0  0  0  0  0  0  0
   10.6412   -3.5089   21.7936 C   0  0  0  0  0  0  0  0  0  0  0  0
   10.4972   -3.8968   24.1589 C   0  0  0  0  0  0  0  0  0  0  0  0
    5.9260   -8.2736   16.5517 C   0  0  0  0  0  0  0  0  0  0  0  0
    3.8816   -9.1166   17.2493 C   0  0  0  0  0  0  0  0  0  0  0  0
   10.1297   -1.6575   23.2324 C   0  0  0  0  0  0  0  0  0  0  0  0
    9.4684   -1.6929   26.7263 F   0  0  0  0  0  0  0  0  0  0  0  0
    7.7963   -7.7906   17.9837 C   0  0  0  0  0  0  0  0  0  0  0  0
   10.5884   -3.0725   16.7902 O   0  0  0  0  0  0  0  0  0  0  0  0
   10.4323   -5.3494   20.3516 C   0  0  0  0  0  0  0  0  0  0  0  0
    7.1156   -7.5454   16.8218 C   0  0  0  0  0  0  0  0  0  0  0  0
   10.3885   -4.4388   19.2773 C   0  0  0  0  0  0  0  0  0  0  0  0
    4.5160   -9.3822   15.0841 C   0  0  0  0  0  0  0  0  0  0  0  0
  1  3  4  0
  1 24  4  0
  2  6  4  0
  2 15  4  0
  3  5  4  0
  3  6  4  0
  4 21  4  0
  4 29  4  0
  5 15  4  0
  5 28  1  0
  6 16  4  0
  7 18  4  0
  7 26  4  0
  8 18  1  0
  8 19  4  0
  8 22  4  0
  9 12  4  0
  9 19  4  0
 10 12  4  0
 10 22  4  0
 11 20  4  0
 11 21  4  0
 12 23  1  0
 13 20  4  0
 13 29  4  0
 14 17  4  0
 14 28  4  0
 15 25  2  0
 16 27  4  0
 17 18  4  0
 20 27  1  0
 24 27  4  0
 26 28  4  0
M  END
$$$$

 Created by Python create_sdf_string function

 29 33  0  0  0  0  0  0  0  0999 V2000
    8.8270   -7.0288   18.4251 C   0  0  0  0  0  0  0  0  0  0  0  0
    9.1576   -4.6236   15.8860 O   0  0  0  0  0  0  0  0  0  0  0  0
    9.1509   -5.9108   17.7177 C   0  0  0  0  0  0  0  0  0  0  0  0
    3.6373   -9.5349   16.0582 N   0  0  0  0  0  0  0  0  0  0  0  0
    9.9275   -4.8001   18.0438 N   0  0  0  0  0  0  0  0  0  0  0  0
    8.5908   -5.7425   16.4412 C   0  0  0  0  0  0  0  0  0  0  0  0
   10.5993   -4.8981   21.6068 C   0  0  0  0  0  0  0  0  0  0  0  0
   10.4258   -3.0106   23.0998 C   0  0  0  0  0  0  0  0  0  0  0  0
   10.2148   -3.4364   25.4200 C   0  0  0  0  0  0  0  0  0  0  0  0
    9.7853   -1.1840   24.4927 C   0  0  0  0  0  0  0  0  0  0  0  0
    5.0276   -8.5227   17.5352 C   0  0  0  0  0  0  0  0  0  0  0  0
    9.8187   -2.0895   25.5800 C   0  0  0  0  0  0  0  0  0  0  0  0
    5.6473   -8.7216   15.3158 C   0  0  0  0  0  0  0  0  0  0  0  0
   10.7581   -3.1233   19.4720 N   0  0  0  0  0  0  0  0  0  0  0  0
    9.9571   -4.0573   16.8866 C   0  0  0  0  0  0  0  0  0  0  0  0
    7.6213   -6.5618   16.0087 C   0  0  0  0  0  0  0  0  0  0  0  0
   10.8583   -2.6527   20.7222 C   0  0  0  0  0  0  0  0  0  0  0  0
   10.6412   -3.5089   21.7936 C   0  0  0  0  0  0  0  0  0  0  0  0
   10.4972   -3.8968   24.1589 C   0  0  0  0  0  0  0  0  0  0  0  0
    5.9260   -8.2736   16.5517 C   0  0  0  0  0  0  0  0  0  0  0  0
    3.8816   -9.1166   17.2493 C   0  0  0  0  0  0  0  0  0  0  0  0
   10.1297   -1.6575   23.2324 C   0  0  0  0  0  0  0  0  0  0  0  0
    9.4684   -1.6929   26.7263 F   0  0  0  0  0  0  0  0  0  0  0  0
    7.7963   -7.7906   17.9837 C   0  0  0  0  0  0  0  0  0  0  0  0
   10.5884   -3.0725   16.7902 O   0  0  0  0  0  0  0  0  0  0  0  0
   10.4323   -5.3494   20.3516 C   0  0  0  0  0  0  0  0  0  0  0  0
    7.1156   -7.5454   16.8218 C   0  0  0  0  0  0  0  0  0  0  0  0
   10.3885   -4.4388   19.2773 C   0  0  0  0  0  0  0  0  0  0  0  0
    4.5160   -9.3822   15.0841 C   0  0  0  0  0  0  0  0  0  0  0  0
  1  3  4  0
  1 24  4  0
  2  6  4  0
  2 15  4  0
  3  5  4  0
  3  6  4  0
  4 21  4  0
  4 29  4  0
  5 15  4  0
  5 28  1  0
  6 16  4  0
  7 18  4  0
  7 26  4  0
  8 18  1  0
  8 19  4  0
  8 22  4  0
  9 12  4  0
  9 19  4  0
 10 12  4  0
 10 22  4  0
 11 20  4  0
 11 21  4  0
 12 23  1  0
 13 20  4  0
 13 29  4  0
 14 17  4  0
 14 28  4  0
 15 25  2  0
 16 27  4  0
 17 18  4  0
 20 27  1  0
 24 27  4  0
 26 28  4  0
M  END
$$$$

 Created by Python create_sdf_string function

 29 33  0  0  0  0  0  0  0  0999 V2000
    8.8270   -7.0288   18.4251 C   0  0  0  0  0  0  0  0  0  0  0  0
    9.1576   -4.6236   15.8860 O   0  0  0  0  0  0  0  0  0  0  0  0
    9.1509   -5.9108   17.7177 C   0  0  0  0  0  0  0  0  0  0  0  0
    3.6373   -9.5349   16.0582 N   0  0  0  0  0  0  0  0  0  0  0  0
    9.9275   -4.8001   18.0438 N   0  0  0  0  0  0  0  0  0  0  0  0
    8.5908   -5.7425   16.4412 C   0  0  0  0  0  0  0  0  0  0  0  0
   10.5993   -4.8981   21.6068 C   0  0  0  0  0  0  0  0  0  0  0  0
   10.4258   -3.0106   23.0998 C   0  0  0  0  0  0  0  0  0  0  0  0
   10.2148   -3.4364   25.4200 C   0  0  0  0  0  0  0  0  0  0  0  0
    9.7853   -1.1840   24.4927 C   0  0  0  0  0  0  0  0  0  0  0  0
    5.0276   -8.5227   17.5352 C   0  0  0  0  0  0  0  0  0  0  0  0
    9.8187   -2.0895   25.5800 C   0  0  0  0  0  0  0  0  0  0  0  0
    5.6473   -8.7216   15.3158 C   0  0  0  0  0  0  0  0  0  0  0  0
   10.7581   -3.1233   19.4720 N   0  0  0  0  0  0  0  0  0  0  0  0
    9.9571   -4.0573   16.8866 C   0  0  0  0  0  0  0  0  0  0  0  0
    7.6213   -6.5618   16.0087 C   0  0  0  0  0  0  0  0  0  0  0  0
   10.8583   -2.6527   20.7222 C   0  0  0  0  0  0  0  0  0  0  0  0
   10.6412   -3.5089   21.7936 C   0  0  0  0  0  0  0  0  0  0  0  0
   10.4972   -3.8968   24.1589 C   0  0  0  0  0  0  0  0  0  0  0  0
    5.9260   -8.2736   16.5517 C   0  0  0  0  0  0  0  0  0  0  0  0
    3.8816   -9.1166   17.2493 C   0  0  0  0  0  0  0  0  0  0  0  0
   10.1297   -1.6575   23.2324 C   0  0  0  0  0  0  0  0  0  0  0  0
    9.4684   -1.6929   26.7263 F   0  0  0  0  0  0  0  0  0  0  0  0
    7.7963   -7.7906   17.9837 C   0  0  0  0  0  0  0  0  0  0  0  0
   10.5884   -3.0725   16.7902 O   0  0  0  0  0  0  0  0  0  0  0  0
   10.4323   -5.3494   20.3516 C   0  0  0  0  0  0  0  0  0  0  0  0
    7.1156   -7.5454   16.8218 C   0  0  0  0  0  0  0  0  0  0  0  0
   10.3885   -4.4388   19.2773 C   0  0  0  0  0  0  0  0  0  0  0  0
    4.5160   -9.3822   15.0841 C   0  0  0  0  0  0  0  0  0  0  0  0
  1  3  4  0
  1 24  4  0
  2  6  4  0
  2 15  4  0
  3  5  4  0
  3  6  4  0
  4 21  4  0
  4 29  4  0
  5 15  4  0
  5 28  1  0
  6 16  4  0
  7 18  4  0
  7 26  4  0
  8 18  1  0
  8 19  4  0
  8 22  4  0
  9 12  4  0
  9 19  4  0
 10 12  4  0
 10 22  4  0
 11 20  4  0
 11 21  4  0
 12 23  1  0
 13 20  4  0
 13 29  4  0
 14 17  4  0
 14 28  4  0
 15 25  2  0
 16 27  4  0
 17 18  4  0
 20 27  1  0
 24 27  4  0
 26 28  4  0
M  END
$$$$

 Created by Python create_sdf_string function

 29 33  0  0  0  0  0  0  0  0999 V2000
    8.8270   -7.0288   18.4251 C   0  0  0  0  0  0  0  0  0  0  0  0
    9.1576   -4.6236   15.8860 O   0  0  0  0  0  0  0  0  0  0  0  0
    9.1509   -5.9108   17.7177 C   0  0  0  0  0  0  0  0  0  0  0  0
    3.6373   -9.5349   16.0582 N   0  0  0  0  0  0  0  0  0  0  0  0
    9.9275   -4.8001   18.0438 N   0  0  0  0  0  0  0  0  0  0  0  0
    8.5908   -5.7425   16.4412 C   0  0  0  0  0  0  0  0  0  0  0  0
   10.5993   -4.8981   21.6068 C   0  0  0  0  0  0  0  0  0  0  0  0
   10.4258   -3.0106   23.0998 C   0  0  0  0  0  0  0  0  0  0  0  0
   10.2148   -3.4364   25.4200 C   0  0  0  0  0  0  0  0  0  0  0  0
    9.7853   -1.1840   24.4927 C   0  0  0  0  0  0  0  0  0  0  0  0
    5.0276   -8.5227   17.5352 C   0  0  0  0  0  0  0  0  0  0  0  0
    9.8187   -2.0895   25.5800 C   0  0  0  0  0  0  0  0  0  0  0  0
    5.6473   -8.7216   15.3158 C   0  0  0  0  0  0  0  0  0  0  0  0
   10.7581   -3.1233   19.4720 N   0  0  0  0  0  0  0  0  0  0  0  0
    9.9571   -4.0573   16.8866 C   0  0  0  0  0  0  0  0  0  0  0  0
    7.6213   -6.5618   16.0087 C   0  0  0  0  0  0  0  0  0  0  0  0
   10.8583   -2.6527   20.7222 C   0  0  0  0  0  0  0  0  0  0  0  0
   10.6412   -3.5089   21.7936 C   0  0  0  0  0  0  0  0  0  0  0  0
   10.4972   -3.8968   24.1589 C   0  0  0  0  0  0  0  0  0  0  0  0
    5.9260   -8.2736   16.5517 C   0  0  0  0  0  0  0  0  0  0  0  0
    3.8816   -9.1166   17.2493 C   0  0  0  0  0  0  0  0  0  0  0  0
   10.1297   -1.6575   23.2324 C   0  0  0  0  0  0  0  0  0  0  0  0
    9.4684   -1.6929   26.7263 F   0  0  0  0  0  0  0  0  0  0  0  0
    7.7963   -7.7906   17.9837 C   0  0  0  0  0  0  0  0  0  0  0  0
   10.5884   -3.0725   16.7902 O   0  0  0  0  0  0  0  0  0  0  0  0
   10.4323   -5.3494   20.3516 C   0  0  0  0  0  0  0  0  0  0  0  0
    7.1156   -7.5454   16.8218 C   0  0  0  0  0  0  0  0  0  0  0  0
   10.3885   -4.4388   19.2773 C   0  0  0  0  0  0  0  0  0  0  0  0
    4.5160   -9.3822   15.0841 C   0  0  0  0  0  0  0  0  0  0  0  0
  1  3  4  0
  1 24  4  0
  2  6  4  0
  2 15  4  0
  3  5  4  0
  3  6  4  0
  4 21  4  0
  4 29  4  0
  5 15  4  0
  5 28  1  0
  6 16  4  0
  7 18  4  0
  7 26  4  0
  8 18  1  0
  8 19  4  0
  8 22  4  0
  9 12  4  0
  9 19  4  0
 10 12  4  0
 10 22  4  0
 11 20  4  0
 11 21  4  0
 12 23  1  0
 13 20  4  0
 13 29  4  0
 14 17  4  0
 14 28  4  0
 15 25  2  0
 16 27  4  0
 17 18  4  0
 20 27  1  0
 24 27  4  0
 26 28  4  0
M  END
$$$$

 Created by Python create_sdf_string function

 29 33  0  0  0  0  0  0  0  0999 V2000
    8.8270   -7.0288   18.4251 C   0  0  0  0  0  0  0  0  0  0  0  0
    9.1576   -4.6236   15.8860 O   0  0  0  0  0  0  0  0  0  0  0  0
    9.1509   -5.9108   17.7177 C   0  0  0  0  0  0  0  0  0  0  0  0
    3.6373   -9.5349   16.0582 N   0  0  0  0  0  0  0  0  0  0  0  0
    9.9275   -4.8001   18.0438 N   0  0  0  0  0  0  0  0  0  0  0  0
    8.5908   -5.7425   16.4412 C   0  0  0  0  0  0  0  0  0  0  0  0
   10.5993   -4.8981   21.6068 C   0  0  0  0  0  0  0  0  0  0  0  0
   10.4258   -3.0106   23.0998 C   0  0  0  0  0  0  0  0  0  0  0  0
   10.2148   -3.4364   25.4200 C   0  0  0  0  0  0  0  0  0  0  0  0
    9.7853   -1.1840   24.4927 C   0  0  0  0  0  0  0  0  0  0  0  0
    5.0276   -8.5227   17.5352 C   0  0  0  0  0  0  0  0  0  0  0  0
    9.8187   -2.0895   25.5800 C   0  0  0  0  0  0  0  0  0  0  0  0
    5.6473   -8.7216   15.3158 C   0  0  0  0  0  0  0  0  0  0  0  0
   10.7581   -3.1233   19.4720 N   0  0  0  0  0  0  0  0  0  0  0  0
    9.9571   -4.0573   16.8866 C   0  0  0  0  0  0  0  0  0  0  0  0
    7.6213   -6.5618   16.0087 C   0  0  0  0  0  0  0  0  0  0  0  0
   10.8583   -2.6527   20.7222 C   0  0  0  0  0  0  0  0  0  0  0  0
   10.6412   -3.5089   21.7936 C   0  0  0  0  0  0  0  0  0  0  0  0
   10.4972   -3.8968   24.1589 C   0  0  0  0  0  0  0  0  0  0  0  0
    5.9260   -8.2736   16.5517 C   0  0  0  0  0  0  0  0  0  0  0  0
    3.8816   -9.1166   17.2493 C   0  0  0  0  0  0  0  0  0  0  0  0
   10.1297   -1.6575   23.2324 C   0  0  0  0  0  0  0  0  0  0  0  0
    9.4684   -1.6929   26.7263 F   0  0  0  0  0  0  0  0  0  0  0  0
    7.7963   -7.7906   17.9837 C   0  0  0  0  0  0  0  0  0  0  0  0
   10.5884   -3.0725   16.7902 O   0  0  0  0  0  0  0  0  0  0  0  0
   10.4323   -5.3494   20.3516 C   0  0  0  0  0  0  0  0  0  0  0  0
    7.1156   -7.5454   16.8218 C   0  0  0  0  0  0  0  0  0  0  0  0
   10.3885   -4.4388   19.2773 C   0  0  0  0  0  0  0  0  0  0  0  0
    4.5160   -9.3822   15.0841 C   0  0  0  0  0  0  0  0  0  0  0  0
  1  3  4  0
  1 24  4  0
  2  6  4  0
  2 15  4  0
  3  5  4  0
  3  6  4  0
  4 21  4  0
  4 29  4  0
  5 15  4  0
  5 28  1  0
  6 16  4  0
  7 18  4  0
  7 26  4  0
  8 18  1  0
  8 19  4  0
  8 22  4  0
  9 12  4  0
  9 19  4  0
 10 12  4  0
 10 22  4  0
 11 20  4  0
 11 21  4  0
 12 23  1  0
 13 20  4  0
 13 29  4  0
 14 17  4  0
 14 28  4  0
 15 25  2  0
 16 27  4  0
 17 18  4  0
 20 27  1  0
 24 27  4  0
 26 28  4  0
M  END
$$$$

 Created by Python create_sdf_string function

 29 33  0  0  0  0  0  0  0  0999 V2000
    8.8270   -7.0288   18.4251 C   0  0  0  0  0  0  0  0  0  0  0  0
    9.1576   -4.6236   15.8860 O   0  0  0  0  0  0  0  0  0  0  0  0
    9.1509   -5.9108   17.7177 C   0  0  0  0  0  0  0  0  0  0  0  0
    3.6373   -9.5349   16.0582 N   0  0  0  0  0  0  0  0  0  0  0  0
    9.9275   -4.8001   18.0438 N   0  0  0  0  0  0  0  0  0  0  0  0
    8.5908   -5.7425   16.4412 C   0  0  0  0  0  0  0  0  0  0  0  0
   10.5993   -4.8981   21.6068 C   0  0  0  0  0  0  0  0  0  0  0  0
   10.4258   -3.0106   23.0998 C   0  0  0  0  0  0  0  0  0  0  0  0
   10.2148   -3.4364   25.4200 C   0  0  0  0  0  0  0  0  0  0  0  0
    9.7853   -1.1840   24.4927 C   0  0  0  0  0  0  0  0  0  0  0  0
    5.0276   -8.5227   17.5352 C   0  0  0  0  0  0  0  0  0  0  0  0
    9.8187   -2.0895   25.5800 C   0  0  0  0  0  0  0  0  0  0  0  0
    5.6473   -8.7216   15.3158 C   0  0  0  0  0  0  0  0  0  0  0  0
   10.7581   -3.1233   19.4720 N   0  0  0  0  0  0  0  0  0  0  0  0
    9.9571   -4.0573   16.8866 C   0  0  0  0  0  0  0  0  0  0  0  0
    7.6213   -6.5618   16.0087 C   0  0  0  0  0  0  0  0  0  0  0  0
   10.8583   -2.6527   20.7222 C   0  0  0  0  0  0  0  0  0  0  0  0
   10.6412   -3.5089   21.7936 C   0  0  0  0  0  0  0  0  0  0  0  0
   10.4972   -3.8968   24.1589 C   0  0  0  0  0  0  0  0  0  0  0  0
    5.9260   -8.2736   16.5517 C   0  0  0  0  0  0  0  0  0  0  0  0
    3.8816   -9.1166   17.2493 C   0  0  0  0  0  0  0  0  0  0  0  0
   10.1297   -1.6575   23.2324 C   0  0  0  0  0  0  0  0  0  0  0  0
    9.4684   -1.6929   26.7263 F   0  0  0  0  0  0  0  0  0  0  0  0
    7.7963   -7.7906   17.9837 C   0  0  0  0  0  0  0  0  0  0  0  0
   10.5884   -3.0725   16.7902 O   0  0  0  0  0  0  0  0  0  0  0  0
   10.4323   -5.3494   20.3516 C   0  0  0  0  0  0  0  0  0  0  0  0
    7.1156   -7.5454   16.8218 C   0  0  0  0  0  0  0  0  0  0  0  0
   10.3885   -4.4388   19.2773 C   0  0  0  0  0  0  0  0  0  0  0  0
    4.5160   -9.3822   15.0841 C   0  0  0  0  0  0  0  0  0  0  0  0
  1  3  4  0
  1 24  4  0
  2  6  4  0
  2 15  4  0
  3  5  4  0
  3  6  4  0
  4 21  4  0
  4 29  4  0
  5 15  4  0
  5 28  1  0
  6 16  4  0
  7 18  4  0
  7 26  4  0
  8 18  1  0
  8 19  4  0
  8 22  4  0
  9 12  4  0
  9 19  4  0
 10 12  4  0
 10 22  4  0
 11 20  4  0
 11 21  4  0
 12 23  1  0
 13 20  4  0
 13 29  4  0
 14 17  4  0
 14 28  4  0
 15 25  2  0
 16 27  4  0
 17 18  4  0
 20 27  1  0
 24 27  4  0
 26 28  4  0
M  END
$$$$

 Created by Python create_sdf_string function

 29 33  0  0  0  0  0  0  0  0999 V2000
    8.8270   -7.0288   18.4251 C   0  0  0  0  0  0  0  0  0  0  0  0
    9.1576   -4.6236   15.8860 O   0  0  0  0  0  0  0  0  0  0  0  0
    9.1509   -5.9108   17.7177 C   0  0  0  0  0  0  0  0  0  0  0  0
    3.6373   -9.5349   16.0582 N   0  0  0  0  0  0  0  0  0  0  0  0
    9.9275   -4.8001   18.0438 N   0  0  0  0  0  0  0  0  0  0  0  0
    8.5908   -5.7425   16.4412 C   0  0  0  0  0  0  0  0  0  0  0  0
   10.5993   -4.8981   21.6068 C   0  0  0  0  0  0  0  0  0  0  0  0
   10.4258   -3.0106   23.0998 C   0  0  0  0  0  0  0  0  0  0  0  0
   10.2148   -3.4364   25.4200 C   0  0  0  0  0  0  0  0  0  0  0  0
    9.7853   -1.1840   24.4927 C   0  0  0  0  0  0  0  0  0  0  0  0
    5.0276   -8.5227   17.5352 C   0  0  0  0  0  0  0  0  0  0  0  0
    9.8187   -2.0895   25.5800 C   0  0  0  0  0  0  0  0  0  0  0  0
    5.6473   -8.7216   15.3158 C   0  0  0  0  0  0  0  0  0  0  0  0
   10.7581   -3.1233   19.4720 N   0  0  0  0  0  0  0  0  0  0  0  0
    9.9571   -4.0573   16.8866 C   0  0  0  0  0  0  0  0  0  0  0  0
    7.6213   -6.5618   16.0087 C   0  0  0  0  0  0  0  0  0  0  0  0
   10.8583   -2.6527   20.7222 C   0  0  0  0  0  0  0  0  0  0  0  0
   10.6412   -3.5089   21.7936 C   0  0  0  0  0  0  0  0  0  0  0  0
   10.4972   -3.8968   24.1589 C   0  0  0  0  0  0  0  0  0  0  0  0
    5.9260   -8.2736   16.5517 C   0  0  0  0  0  0  0  0  0  0  0  0
    3.8816   -9.1166   17.2493 C   0  0  0  0  0  0  0  0  0  0  0  0
   10.1297   -1.6575   23.2324 C   0  0  0  0  0  0  0  0  0  0  0  0
    9.4684   -1.6929   26.7263 F   0  0  0  0  0  0  0  0  0  0  0  0
    7.7963   -7.7906   17.9837 C   0  0  0  0  0  0  0  0  0  0  0  0
   10.5884   -3.0725   16.7902 O   0  0  0  0  0  0  0  0  0  0  0  0
   10.4323   -5.3494   20.3516 C   0  0  0  0  0  0  0  0  0  0  0  0
    7.1156   -7.5454   16.8218 C   0  0  0  0  0  0  0  0  0  0  0  0
   10.3885   -4.4388   19.2773 C   0  0  0  0  0  0  0  0  0  0  0  0
    4.5160   -9.3822   15.0841 C   0  0  0  0  0  0  0  0  0  0  0  0
  1  3  4  0
  1 24  4  0
  2  6  4  0
  2 15  4  0
  3  5  4  0
  3  6  4  0
  4 21  4  0
  4 29  4  0
  5 15  4  0
  5 28  1  0
  6 16  4  0
  7 18  4  0
  7 26  4  0
  8 18  1  0
  8 19  4  0
  8 22  4  0
  9 12  4  0
  9 19  4  0
 10 12  4  0
 10 22  4  0
 11 20  4  0
 11 21  4  0
 12 23  1  0
 13 20  4  0
 13 29  4  0
 14 17  4  0
 14 28  4  0
 15 25  2  0
 16 27  4  0
 17 18  4  0
 20 27  1  0
 24 27  4  0
 26 28  4  0
M  END
$$$$

 Created by Python create_sdf_string function

 29 33  0  0  0  0  0  0  0  0999 V2000
    8.8270   -7.0288   18.4251 C   0  0  0  0  0  0  0  0  0  0  0  0
    9.1576   -4.6236   15.8860 O   0  0  0  0  0  0  0  0  0  0  0  0
    9.1509   -5.9108   17.7177 C   0  0  0  0  0  0  0  0  0  0  0  0
    3.6373   -9.5349   16.0582 N   0  0  0  0  0  0  0  0  0  0  0  0
    9.9275   -4.8001   18.0438 N   0  0  0  0  0  0  0  0  0  0  0  0
    8.5908   -5.7425   16.4412 C   0  0  0  0  0  0  0  0  0  0  0  0
   10.5993   -4.8981   21.6068 C   0  0  0  0  0  0  0  0  0  0  0  0
   10.4258   -3.0106   23.0998 C   0  0  0  0  0  0  0  0  0  0  0  0
   10.2148   -3.4364   25.4200 C   0  0  0  0  0  0  0  0  0  0  0  0
    9.7853   -1.1840   24.4927 C   0  0  0  0  0  0  0  0  0  0  0  0
    5.0276   -8.5227   17.5352 C   0  0  0  0  0  0  0  0  0  0  0  0
    9.8187   -2.0895   25.5800 C   0  0  0  0  0  0  0  0  0  0  0  0
    5.6473   -8.7216   15.3158 C   0  0  0  0  0  0  0  0  0  0  0  0
   10.7581   -3.1233   19.4720 N   0  0  0  0  0  0  0  0  0  0  0  0
    9.9571   -4.0573   16.8866 C   0  0  0  0  0  0  0  0  0  0  0  0
    7.6213   -6.5618   16.0087 C   0  0  0  0  0  0  0  0  0  0  0  0
   10.8583   -2.6527   20.7222 C   0  0  0  0  0  0  0  0  0  0  0  0
   10.6412   -3.5089   21.7936 C   0  0  0  0  0  0  0  0  0  0  0  0
   10.4972   -3.8968   24.1589 C   0  0  0  0  0  0  0  0  0  0  0  0
    5.9260   -8.2736   16.5517 C   0  0  0  0  0  0  0  0  0  0  0  0
    3.8816   -9.1166   17.2493 C   0  0  0  0  0  0  0  0  0  0  0  0
   10.1297   -1.6575   23.2324 C   0  0  0  0  0  0  0  0  0  0  0  0
    9.4684   -1.6929   26.7263 F   0  0  0  0  0  0  0  0  0  0  0  0
    7.7963   -7.7906   17.9837 C   0  0  0  0  0  0  0  0  0  0  0  0
   10.5884   -3.0725   16.7902 O   0  0  0  0  0  0  0  0  0  0  0  0
   10.4323   -5.3494   20.3516 C   0  0  0  0  0  0  0  0  0  0  0  0
    7.1156   -7.5454   16.8218 C   0  0  0  0  0  0  0  0  0  0  0  0
   10.3885   -4.4388   19.2773 C   0  0  0  0  0  0  0  0  0  0  0  0
    4.5160   -9.3822   15.0841 C   0  0  0  0  0  0  0  0  0  0  0  0
  1  3  4  0
  1 24  4  0
  2  6  4  0
  2 15  4  0
  3  5  4  0
  3  6  4  0
  4 21  4  0
  4 29  4  0
  5 15  4  0
  5 28  1  0
  6 16  4  0
  7 18  4  0
  7 26  4  0
  8 18  1  0
  8 19  4  0
  8 22  4  0
  9 12  4  0
  9 19  4  0
 10 12  4  0
 10 22  4  0
 11 20  4  0
 11 21  4  0
 12 23  1  0
 13 20  4  0
 13 29  4  0
 14 17  4  0
 14 28  4  0
 15 25  2  0
 16 27  4  0
 17 18  4  0
 20 27  1  0
 24 27  4  0
 26 28  4  0
M  END
$$$$

 Created by Python create_sdf_string function

 29 33  0  0  0  0  0  0  0  0999 V2000
    8.8270   -7.0288   18.4251 C   0  0  0  0  0  0  0  0  0  0  0  0
    9.1576   -4.6236   15.8860 O   0  0  0  0  0  0  0  0  0  0  0  0
    9.1509   -5.9108   17.7177 C   0  0  0  0  0  0  0  0  0  0  0  0
    3.6373   -9.5349   16.0582 N   0  0  0  0  0  0  0  0  0  0  0  0
    9.9275   -4.8001   18.0438 N   0  0  0  0  0  0  0  0  0  0  0  0
    8.5908   -5.7425   16.4412 C   0  0  0  0  0  0  0  0  0  0  0  0
   10.5993   -4.8981   21.6068 C   0  0  0  0  0  0  0  0  0  0  0  0
   10.4258   -3.0106   23.0998 C   0  0  0  0  0  0  0  0  0  0  0  0
   10.2148   -3.4364   25.4200 C   0  0  0  0  0  0  0  0  0  0  0  0
    9.7853   -1.1840   24.4927 C   0  0  0  0  0  0  0  0  0  0  0  0
    5.0276   -8.5227   17.5352 C   0  0  0  0  0  0  0  0  0  0  0  0
    9.8187   -2.0895   25.5800 C   0  0  0  0  0  0  0  0  0  0  0  0
    5.6473   -8.7216   15.3158 C   0  0  0  0  0  0  0  0  0  0  0  0
   10.7581   -3.1233   19.4720 N   0  0  0  0  0  0  0  0  0  0  0  0
    9.9571   -4.0573   16.8866 C   0  0  0  0  0  0  0  0  0  0  0  0
    7.6213   -6.5618   16.0087 C   0  0  0  0  0  0  0  0  0  0  0  0
   10.8583   -2.6527   20.7222 C   0  0  0  0  0  0  0  0  0  0  0  0
   10.6412   -3.5089   21.7936 C   0  0  0  0  0  0  0  0  0  0  0  0
   10.4972   -3.8968   24.1589 C   0  0  0  0  0  0  0  0  0  0  0  0
    5.9260   -8.2736   16.5517 C   0  0  0  0  0  0  0  0  0  0  0  0
    3.8816   -9.1166   17.2493 C   0  0  0  0  0  0  0  0  0  0  0  0
   10.1297   -1.6575   23.2324 C   0  0  0  0  0  0  0  0  0  0  0  0
    9.4684   -1.6929   26.7263 F   0  0  0  0  0  0  0  0  0  0  0  0
    7.7963   -7.7906   17.9837 C   0  0  0  0  0  0  0  0  0  0  0  0
   10.5884   -3.0725   16.7902 O   0  0  0  0  0  0  0  0  0  0  0  0
   10.4323   -5.3494   20.3516 C   0  0  0  0  0  0  0  0  0  0  0  0
    7.1156   -7.5454   16.8218 C   0  0  0  0  0  0  0  0  0  0  0  0
   10.3885   -4.4388   19.2773 C   0  0  0  0  0  0  0  0  0  0  0  0
    4.5160   -9.3822   15.0841 C   0  0  0  0  0  0  0  0  0  0  0  0
  1  3  4  0
  1 24  4  0
  2  6  4  0
  2 15  4  0
  3  5  4  0
  3  6  4  0
  4 21  4  0
  4 29  4  0
  5 15  4  0
  5 28  1  0
  6 16  4  0
  7 18  4  0
  7 26  4  0
  8 18  1  0
  8 19  4  0
  8 22  4  0
  9 12  4  0
  9 19  4  0
 10 12  4  0
 10 22  4  0
 11 20  4  0
 11 21  4  0
 12 23  1  0
 13 20  4  0
 13 29  4  0
 14 17  4  0
 14 28  4  0
 15 25  2  0
 16 27  4  0
 17 18  4  0
 20 27  1  0
 24 27  4  0
 26 28  4  0
M  END
$$$$

 Created by Python create_sdf_string function

 29 33  0  0  0  0  0  0  0  0999 V2000
    8.8270   -7.0288   18.4251 C   0  0  0  0  0  0  0  0  0  0  0  0
    9.1576   -4.6236   15.8860 O   0  0  0  0  0  0  0  0  0  0  0  0
    9.1509   -5.9108   17.7177 C   0  0  0  0  0  0  0  0  0  0  0  0
    3.6373   -9.5349   16.0582 N   0  0  0  0  0  0  0  0  0  0  0  0
    9.9275   -4.8001   18.0438 N   0  0  0  0  0  0  0  0  0  0  0  0
    8.5908   -5.7425   16.4412 C   0  0  0  0  0  0  0  0  0  0  0  0
   10.5993   -4.8981   21.6068 C   0  0  0  0  0  0  0  0  0  0  0  0
   10.4258   -3.0106   23.0998 C   0  0  0  0  0  0  0  0  0  0  0  0
   10.2148   -3.4364   25.4200 C   0  0  0  0  0  0  0  0  0  0  0  0
    9.7853   -1.1840   24.4927 C   0  0  0  0  0  0  0  0  0  0  0  0
    5.0276   -8.5227   17.5352 C   0  0  0  0  0  0  0  0  0  0  0  0
    9.8187   -2.0895   25.5800 C   0  0  0  0  0  0  0  0  0  0  0  0
    5.6473   -8.7216   15.3158 C   0  0  0  0  0  0  0  0  0  0  0  0
   10.7581   -3.1233   19.4720 N   0  0  0  0  0  0  0  0  0  0  0  0
    9.9571   -4.0573   16.8866 C   0  0  0  0  0  0  0  0  0  0  0  0
    7.6213   -6.5618   16.0087 C   0  0  0  0  0  0  0  0  0  0  0  0
   10.8583   -2.6527   20.7222 C   0  0  0  0  0  0  0  0  0  0  0  0
   10.6412   -3.5089   21.7936 C   0  0  0  0  0  0  0  0  0  0  0  0
   10.4972   -3.8968   24.1589 C   0  0  0  0  0  0  0  0  0  0  0  0
    5.9260   -8.2736   16.5517 C   0  0  0  0  0  0  0  0  0  0  0  0
    3.8816   -9.1166   17.2493 C   0  0  0  0  0  0  0  0  0  0  0  0
   10.1297   -1.6575   23.2324 C   0  0  0  0  0  0  0  0  0  0  0  0
    9.4684   -1.6929   26.7263 F   0  0  0  0  0  0  0  0  0  0  0  0
    7.7963   -7.7906   17.9837 C   0  0  0  0  0  0  0  0  0  0  0  0
   10.5884   -3.0725   16.7902 O   0  0  0  0  0  0  0  0  0  0  0  0
   10.4323   -5.3494   20.3516 C   0  0  0  0  0  0  0  0  0  0  0  0
    7.1156   -7.5454   16.8218 C   0  0  0  0  0  0  0  0  0  0  0  0
   10.3885   -4.4388   19.2773 C   0  0  0  0  0  0  0  0  0  0  0  0
    4.5160   -9.3822   15.0841 C   0  0  0  0  0  0  0  0  0  0  0  0
  1  3  4  0
  1 24  4  0
  2  6  4  0
  2 15  4  0
  3  5  4  0
  3  6  4  0
  4 21  4  0
  4 29  4  0
  5 15  4  0
  5 28  1  0
  6 16  4  0
  7 18  4  0
  7 26  4  0
  8 18  1  0
  8 19  4  0
  8 22  4  0
  9 12  4  0
  9 19  4  0
 10 12  4  0
 10 22  4  0
 11 20  4  0
 11 21  4  0
 12 23  1  0
 13 20  4  0
 13 29  4  0
 14 17  4  0
 14 28  4  0
 15 25  2  0
 16 27  4  0
 17 18  4  0
 20 27  1  0
 24 27  4  0
 26 28  4  0
M  END
$$$$

 Created by Python create_sdf_string function

 29 33  0  0  0  0  0  0  0  0999 V2000
    8.8270   -7.0288   18.4251 C   0  0  0  0  0  0  0  0  0  0  0  0
    9.1576   -4.6236   15.8860 O   0  0  0  0  0  0  0  0  0  0  0  0
    9.1509   -5.9108   17.7177 C   0  0  0  0  0  0  0  0  0  0  0  0
    3.6373   -9.5349   16.0582 N   0  0  0  0  0  0  0  0  0  0  0  0
    9.9275   -4.8001   18.0438 N   0  0  0  0  0  0  0  0  0  0  0  0
    8.5908   -5.7425   16.4412 C   0  0  0  0  0  0  0  0  0  0  0  0
   10.5993   -4.8981   21.6068 C   0  0  0  0  0  0  0  0  0  0  0  0
   10.4258   -3.0106   23.0998 C   0  0  0  0  0  0  0  0  0  0  0  0
   10.2148   -3.4364   25.4200 C   0  0  0  0  0  0  0  0  0  0  0  0
    9.7853   -1.1840   24.4927 C   0  0  0  0  0  0  0  0  0  0  0  0
    5.0276   -8.5227   17.5352 C   0  0  0  0  0  0  0  0  0  0  0  0
    9.8187   -2.0895   25.5800 C   0  0  0  0  0  0  0  0  0  0  0  0
    5.6473   -8.7216   15.3158 C   0  0  0  0  0  0  0  0  0  0  0  0
   10.7581   -3.1233   19.4720 N   0  0  0  0  0  0  0  0  0  0  0  0
    9.9571   -4.0573   16.8866 C   0  0  0  0  0  0  0  0  0  0  0  0
    7.6213   -6.5618   16.0087 C   0  0  0  0  0  0  0  0  0  0  0  0
   10.8583   -2.6527   20.7222 C   0  0  0  0  0  0  0  0  0  0  0  0
   10.6412   -3.5089   21.7936 C   0  0  0  0  0  0  0  0  0  0  0  0
   10.4972   -3.8968   24.1589 C   0  0  0  0  0  0  0  0  0  0  0  0
    5.9260   -8.2736   16.5517 C   0  0  0  0  0  0  0  0  0  0  0  0
    3.8816   -9.1166   17.2493 C   0  0  0  0  0  0  0  0  0  0  0  0
   10.1297   -1.6575   23.2324 C   0  0  0  0  0  0  0  0  0  0  0  0
    9.4684   -1.6929   26.7263 F   0  0  0  0  0  0  0  0  0  0  0  0
    7.7963   -7.7906   17.9837 C   0  0  0  0  0  0  0  0  0  0  0  0
   10.5884   -3.0725   16.7902 O   0  0  0  0  0  0  0  0  0  0  0  0
   10.4323   -5.3494   20.3516 C   0  0  0  0  0  0  0  0  0  0  0  0
    7.1156   -7.5454   16.8218 C   0  0  0  0  0  0  0  0  0  0  0  0
   10.3885   -4.4388   19.2773 C   0  0  0  0  0  0  0  0  0  0  0  0
    4.5160   -9.3822   15.0841 C   0  0  0  0  0  0  0  0  0  0  0  0
  1  3  4  0
  1 24  4  0
  2  6  4  0
  2 15  4  0
  3  5  4  0
  3  6  4  0
  4 21  4  0
  4 29  4  0
  5 15  4  0
  5 28  1  0
  6 16  4  0
  7 18  4  0
  7 26  4  0
  8 18  1  0
  8 19  4  0
  8 22  4  0
  9 12  4  0
  9 19  4  0
 10 12  4  0
 10 22  4  0
 11 20  4  0
 11 21  4  0
 12 23  1  0
 13 20  4  0
 13 29  4  0
 14 17  4  0
 14 28  4  0
 15 25  2  0
 16 27  4  0
 17 18  4  0
 20 27  1  0
 24 27  4  0
 26 28  4  0
M  END
$$$$

 Created by Python create_sdf_string function

 29 33  0  0  0  0  0  0  0  0999 V2000
    8.8270   -7.0288   18.4251 C   0  0  0  0  0  0  0  0  0  0  0  0
    9.1576   -4.6236   15.8860 O   0  0  0  0  0  0  0  0  0  0  0  0
    9.1509   -5.9108   17.7177 C   0  0  0  0  0  0  0  0  0  0  0  0
    3.6373   -9.5349   16.0582 N   0  0  0  0  0  0  0  0  0  0  0  0
    9.9275   -4.8001   18.0438 N   0  0  0  0  0  0  0  0  0  0  0  0
    8.5908   -5.7425   16.4412 C   0  0  0  0  0  0  0  0  0  0  0  0
   10.5993   -4.8981   21.6068 C   0  0  0  0  0  0  0  0  0  0  0  0
   10.4258   -3.0106   23.0998 C   0  0  0  0  0  0  0  0  0  0  0  0
   10.2148   -3.4364   25.4200 C   0  0  0  0  0  0  0  0  0  0  0  0
    9.7853   -1.1840   24.4927 C   0  0  0  0  0  0  0  0  0  0  0  0
    5.0276   -8.5227   17.5352 C   0  0  0  0  0  0  0  0  0  0  0  0
    9.8187   -2.0895   25.5800 C   0  0  0  0  0  0  0  0  0  0  0  0
    5.6473   -8.7216   15.3158 C   0  0  0  0  0  0  0  0  0  0  0  0
   10.7581   -3.1233   19.4720 N   0  0  0  0  0  0  0  0  0  0  0  0
    9.9571   -4.0573   16.8866 C   0  0  0  0  0  0  0  0  0  0  0  0
    7.6213   -6.5618   16.0087 C   0  0  0  0  0  0  0  0  0  0  0  0
   10.8583   -2.6527   20.7222 C   0  0  0  0  0  0  0  0  0  0  0  0
   10.6412   -3.5089   21.7936 C   0  0  0  0  0  0  0  0  0  0  0  0
   10.4972   -3.8968   24.1589 C   0  0  0  0  0  0  0  0  0  0  0  0
    5.9260   -8.2736   16.5517 C   0  0  0  0  0  0  0  0  0  0  0  0
    3.8816   -9.1166   17.2493 C   0  0  0  0  0  0  0  0  0  0  0  0
   10.1297   -1.6575   23.2324 C   0  0  0  0  0  0  0  0  0  0  0  0
    9.4684   -1.6929   26.7263 F   0  0  0  0  0  0  0  0  0  0  0  0
    7.7963   -7.7906   17.9837 C   0  0  0  0  0  0  0  0  0  0  0  0
   10.5884   -3.0725   16.7902 O   0  0  0  0  0  0  0  0  0  0  0  0
   10.4323   -5.3494   20.3516 C   0  0  0  0  0  0  0  0  0  0  0  0
    7.1156   -7.5454   16.8218 C   0  0  0  0  0  0  0  0  0  0  0  0
   10.3885   -4.4388   19.2773 C   0  0  0  0  0  0  0  0  0  0  0  0
    4.5160   -9.3822   15.0841 C   0  0  0  0  0  0  0  0  0  0  0  0
  1  3  4  0
  1 24  4  0
  2  6  4  0
  2 15  4  0
  3  5  4  0
  3  6  4  0
  4 21  4  0
  4 29  4  0
  5 15  4  0
  5 28  1  0
  6 16  4  0
  7 18  4  0
  7 26  4  0
  8 18  1  0
  8 19  4  0
  8 22  4  0
  9 12  4  0
  9 19  4  0
 10 12  4  0
 10 22  4  0
 11 20  4  0
 11 21  4  0
 12 23  1  0
 13 20  4  0
 13 29  4  0
 14 17  4  0
 14 28  4  0
 15 25  2  0
 16 27  4  0
 17 18  4  0
 20 27  1  0
 24 27  4  0
 26 28  4  0
M  END
$$$$

 Created by Python create_sdf_string function

 29 33  0  0  0  0  0  0  0  0999 V2000
    8.8270   -7.0288   18.4251 C   0  0  0  0  0  0  0  0  0  0  0  0
    9.1576   -4.6236   15.8860 O   0  0  0  0  0  0  0  0  0  0  0  0
    9.1509   -5.9108   17.7177 C   0  0  0  0  0  0  0  0  0  0  0  0
    3.6373   -9.5349   16.0582 N   0  0  0  0  0  0  0  0  0  0  0  0
    9.9275   -4.8001   18.0438 N   0  0  0  0  0  0  0  0  0  0  0  0
    8.5908   -5.7425   16.4412 C   0  0  0  0  0  0  0  0  0  0  0  0
   10.5993   -4.8981   21.6068 C   0  0  0  0  0  0  0  0  0  0  0  0
   10.4258   -3.0106   23.0998 C   0  0  0  0  0  0  0  0  0  0  0  0
   10.2148   -3.4364   25.4200 C   0  0  0  0  0  0  0  0  0  0  0  0
    9.7853   -1.1840   24.4927 C   0  0  0  0  0  0  0  0  0  0  0  0
    5.0276   -8.5227   17.5352 C   0  0  0  0  0  0  0  0  0  0  0  0
    9.8187   -2.0895   25.5800 C   0  0  0  0  0  0  0  0  0  0  0  0
    5.6473   -8.7216   15.3158 C   0  0  0  0  0  0  0  0  0  0  0  0
   10.7581   -3.1233   19.4720 N   0  0  0  0  0  0  0  0  0  0  0  0
    9.9571   -4.0573   16.8866 C   0  0  0  0  0  0  0  0  0  0  0  0
    7.6213   -6.5618   16.0087 C   0  0  0  0  0  0  0  0  0  0  0  0
   10.8583   -2.6527   20.7222 C   0  0  0  0  0  0  0  0  0  0  0  0
   10.6412   -3.5089   21.7936 C   0  0  0  0  0  0  0  0  0  0  0  0
   10.4972   -3.8968   24.1589 C   0  0  0  0  0  0  0  0  0  0  0  0
    5.9260   -8.2736   16.5517 C   0  0  0  0  0  0  0  0  0  0  0  0
    3.8816   -9.1166   17.2493 C   0  0  0  0  0  0  0  0  0  0  0  0
   10.1297   -1.6575   23.2324 C   0  0  0  0  0  0  0  0  0  0  0  0
    9.4684   -1.6929   26.7263 F   0  0  0  0  0  0  0  0  0  0  0  0
    7.7963   -7.7906   17.9837 C   0  0  0  0  0  0  0  0  0  0  0  0
   10.5884   -3.0725   16.7902 O   0  0  0  0  0  0  0  0  0  0  0  0
   10.4323   -5.3494   20.3516 C   0  0  0  0  0  0  0  0  0  0  0  0
    7.1156   -7.5454   16.8218 C   0  0  0  0  0  0  0  0  0  0  0  0
   10.3885   -4.4388   19.2773 C   0  0  0  0  0  0  0  0  0  0  0  0
    4.5160   -9.3822   15.0841 C   0  0  0  0  0  0  0  0  0  0  0  0
  1  3  4  0
  1 24  4  0
  2  6  4  0
  2 15  4  0
  3  5  4  0
  3  6  4  0
  4 21  4  0
  4 29  4  0
  5 15  4  0
  5 28  1  0
  6 16  4  0
  7 18  4  0
  7 26  4  0
  8 18  1  0
  8 19  4  0
  8 22  4  0
  9 12  4  0
  9 19  4  0
 10 12  4  0
 10 22  4  0
 11 20  4  0
 11 21  4  0
 12 23  1  0
 13 20  4  0
 13 29  4  0
 14 17  4  0
 14 28  4  0
 15 25  2  0
 16 27  4  0
 17 18  4  0
 20 27  1  0
 24 27  4  0
 26 28  4  0
M  END
$$$$

 Created by Python create_sdf_string function

 29 33  0  0  0  0  0  0  0  0999 V2000
    8.8270   -7.0288   18.4251 C   0  0  0  0  0  0  0  0  0  0  0  0
    9.1576   -4.6236   15.8860 O   0  0  0  0  0  0  0  0  0  0  0  0
    9.1509   -5.9108   17.7177 C   0  0  0  0  0  0  0  0  0  0  0  0
    3.6373   -9.5349   16.0582 N   0  0  0  0  0  0  0  0  0  0  0  0
    9.9275   -4.8001   18.0438 N   0  0  0  0  0  0  0  0  0  0  0  0
    8.5908   -5.7425   16.4412 C   0  0  0  0  0  0  0  0  0  0  0  0
   10.5993   -4.8981   21.6068 C   0  0  0  0  0  0  0  0  0  0  0  0
   10.4258   -3.0106   23.0998 C   0  0  0  0  0  0  0  0  0  0  0  0
   10.2148   -3.4364   25.4200 C   0  0  0  0  0  0  0  0  0  0  0  0
    9.7853   -1.1840   24.4927 C   0  0  0  0  0  0  0  0  0  0  0  0
    5.0276   -8.5227   17.5352 C   0  0  0  0  0  0  0  0  0  0  0  0
    9.8187   -2.0895   25.5800 C   0  0  0  0  0  0  0  0  0  0  0  0
    5.6473   -8.7216   15.3158 C   0  0  0  0  0  0  0  0  0  0  0  0
   10.7581   -3.1233   19.4720 N   0  0  0  0  0  0  0  0  0  0  0  0
    9.9571   -4.0573   16.8866 C   0  0  0  0  0  0  0  0  0  0  0  0
    7.6213   -6.5618   16.0087 C   0  0  0  0  0  0  0  0  0  0  0  0
   10.8583   -2.6527   20.7222 C   0  0  0  0  0  0  0  0  0  0  0  0
   10.6412   -3.5089   21.7936 C   0  0  0  0  0  0  0  0  0  0  0  0
   10.4972   -3.8968   24.1589 C   0  0  0  0  0  0  0  0  0  0  0  0
    5.9260   -8.2736   16.5517 C   0  0  0  0  0  0  0  0  0  0  0  0
    3.8816   -9.1166   17.2493 C   0  0  0  0  0  0  0  0  0  0  0  0
   10.1297   -1.6575   23.2324 C   0  0  0  0  0  0  0  0  0  0  0  0
    9.4684   -1.6929   26.7263 F   0  0  0  0  0  0  0  0  0  0  0  0
    7.7963   -7.7906   17.9837 C   0  0  0  0  0  0  0  0  0  0  0  0
   10.5884   -3.0725   16.7902 O   0  0  0  0  0  0  0  0  0  0  0  0
   10.4323   -5.3494   20.3516 C   0  0  0  0  0  0  0  0  0  0  0  0
    7.1156   -7.5454   16.8218 C   0  0  0  0  0  0  0  0  0  0  0  0
   10.3885   -4.4388   19.2773 C   0  0  0  0  0  0  0  0  0  0  0  0
    4.5160   -9.3822   15.0841 C   0  0  0  0  0  0  0  0  0  0  0  0
  1  3  4  0
  1 24  4  0
  2  6  4  0
  2 15  4  0
  3  5  4  0
  3  6  4  0
  4 21  4  0
  4 29  4  0
  5 15  4  0
  5 28  1  0
  6 16  4  0
  7 18  4  0
  7 26  4  0
  8 18  1  0
  8 19  4  0
  8 22  4  0
  9 12  4  0
  9 19  4  0
 10 12  4  0
 10 22  4  0
 11 20  4  0
 11 21  4  0
 12 23  1  0
 13 20  4  0
 13 29  4  0
 14 17  4  0
 14 28  4  0
 15 25  2  0
 16 27  4  0
 17 18  4  0
 20 27  1  0
 24 27  4  0
 26 28  4  0
M  END
$$$$

 Created by Python create_sdf_string function

 29 33  0  0  0  0  0  0  0  0999 V2000
    8.8270   -7.0288   18.4251 C   0  0  0  0  0  0  0  0  0  0  0  0
    9.1576   -4.6236   15.8860 O   0  0  0  0  0  0  0  0  0  0  0  0
    9.1509   -5.9108   17.7177 C   0  0  0  0  0  0  0  0  0  0  0  0
    3.6373   -9.5349   16.0582 N   0  0  0  0  0  0  0  0  0  0  0  0
    9.9275   -4.8001   18.0438 N   0  0  0  0  0  0  0  0  0  0  0  0
    8.5908   -5.7425   16.4412 C   0  0  0  0  0  0  0  0  0  0  0  0
   10.5993   -4.8981   21.6068 C   0  0  0  0  0  0  0  0  0  0  0  0
   10.4258   -3.0106   23.0998 C   0  0  0  0  0  0  0  0  0  0  0  0
   10.2148   -3.4364   25.4200 C   0  0  0  0  0  0  0  0  0  0  0  0
    9.7853   -1.1840   24.4927 C   0  0  0  0  0  0  0  0  0  0  0  0
    5.0276   -8.5227   17.5352 C   0  0  0  0  0  0  0  0  0  0  0  0
    9.8187   -2.0895   25.5800 C   0  0  0  0  0  0  0  0  0  0  0  0
    5.6473   -8.7216   15.3158 C   0  0  0  0  0  0  0  0  0  0  0  0
   10.7581   -3.1233   19.4720 N   0  0  0  0  0  0  0  0  0  0  0  0
    9.9571   -4.0573   16.8866 C   0  0  0  0  0  0  0  0  0  0  0  0
    7.6213   -6.5618   16.0087 C   0  0  0  0  0  0  0  0  0  0  0  0
   10.8583   -2.6527   20.7222 C   0  0  0  0  0  0  0  0  0  0  0  0
   10.6412   -3.5089   21.7936 C   0  0  0  0  0  0  0  0  0  0  0  0
   10.4972   -3.8968   24.1589 C   0  0  0  0  0  0  0  0  0  0  0  0
    5.9260   -8.2736   16.5517 C   0  0  0  0  0  0  0  0  0  0  0  0
    3.8816   -9.1166   17.2493 C   0  0  0  0  0  0  0  0  0  0  0  0
   10.1297   -1.6575   23.2324 C   0  0  0  0  0  0  0  0  0  0  0  0
    9.4684   -1.6929   26.7263 F   0  0  0  0  0  0  0  0  0  0  0  0
    7.7963   -7.7906   17.9837 C   0  0  0  0  0  0  0  0  0  0  0  0
   10.5884   -3.0725   16.7902 O   0  0  0  0  0  0  0  0  0  0  0  0
   10.4323   -5.3494   20.3516 C   0  0  0  0  0  0  0  0  0  0  0  0
    7.1156   -7.5454   16.8218 C   0  0  0  0  0  0  0  0  0  0  0  0
   10.3885   -4.4388   19.2773 C   0  0  0  0  0  0  0  0  0  0  0  0
    4.5160   -9.3822   15.0841 C   0  0  0  0  0  0  0  0  0  0  0  0
  1  3  4  0
  1 24  4  0
  2  6  4  0
  2 15  4  0
  3  5  4  0
  3  6  4  0
  4 21  4  0
  4 29  4  0
  5 15  4  0
  5 28  1  0
  6 16  4  0
  7 18  4  0
  7 26  4  0
  8 18  1  0
  8 19  4  0
  8 22  4  0
  9 12  4  0
  9 19  4  0
 10 12  4  0
 10 22  4  0
 11 20  4  0
 11 21  4  0
 12 23  1  0
 13 20  4  0
 13 29  4  0
 14 17  4  0
 14 28  4  0
 15 25  2  0
 16 27  4  0
 17 18  4  0
 20 27  1  0
 24 27  4  0
 26 28  4  0
M  END
$$$$

 Created by Python create_sdf_string function

 29 33  0  0  0  0  0  0  0  0999 V2000
    8.8270   -7.0288   18.4251 C   0  0  0  0  0  0  0  0  0  0  0  0
    9.1576   -4.6236   15.8860 O   0  0  0  0  0  0  0  0  0  0  0  0
    9.1509   -5.9108   17.7177 C   0  0  0  0  0  0  0  0  0  0  0  0
    3.6373   -9.5349   16.0582 N   0  0  0  0  0  0  0  0  0  0  0  0
    9.9275   -4.8001   18.0438 N   0  0  0  0  0  0  0  0  0  0  0  0
    8.5908   -5.7425   16.4412 C   0  0  0  0  0  0  0  0  0  0  0  0
   10.5993   -4.8981   21.6068 C   0  0  0  0  0  0  0  0  0  0  0  0
   10.4258   -3.0106   23.0998 C   0  0  0  0  0  0  0  0  0  0  0  0
   10.2148   -3.4364   25.4200 C   0  0  0  0  0  0  0  0  0  0  0  0
    9.7853   -1.1840   24.4927 C   0  0  0  0  0  0  0  0  0  0  0  0
    5.0276   -8.5227   17.5352 C   0  0  0  0  0  0  0  0  0  0  0  0
    9.8187   -2.0895   25.5800 C   0  0  0  0  0  0  0  0  0  0  0  0
    5.6473   -8.7216   15.3158 C   0  0  0  0  0  0  0  0  0  0  0  0
   10.7581   -3.1233   19.4720 N   0  0  0  0  0  0  0  0  0  0  0  0
    9.9571   -4.0573   16.8866 C   0  0  0  0  0  0  0  0  0  0  0  0
    7.6213   -6.5618   16.0087 C   0  0  0  0  0  0  0  0  0  0  0  0
   10.8583   -2.6527   20.7222 C   0  0  0  0  0  0  0  0  0  0  0  0
   10.6412   -3.5089   21.7936 C   0  0  0  0  0  0  0  0  0  0  0  0
   10.4972   -3.8968   24.1589 C   0  0  0  0  0  0  0  0  0  0  0  0
    5.9260   -8.2736   16.5517 C   0  0  0  0  0  0  0  0  0  0  0  0
    3.8816   -9.1166   17.2493 C   0  0  0  0  0  0  0  0  0  0  0  0
   10.1297   -1.6575   23.2324 C   0  0  0  0  0  0  0  0  0  0  0  0
    9.4684   -1.6929   26.7263 F   0  0  0  0  0  0  0  0  0  0  0  0
    7.7963   -7.7906   17.9837 C   0  0  0  0  0  0  0  0  0  0  0  0
   10.5884   -3.0725   16.7902 O   0  0  0  0  0  0  0  0  0  0  0  0
   10.4323   -5.3494   20.3516 C   0  0  0  0  0  0  0  0  0  0  0  0
    7.1156   -7.5454   16.8218 C   0  0  0  0  0  0  0  0  0  0  0  0
   10.3885   -4.4388   19.2773 C   0  0  0  0  0  0  0  0  0  0  0  0
    4.5160   -9.3822   15.0841 C   0  0  0  0  0  0  0  0  0  0  0  0
  1  3  4  0
  1 24  4  0
  2  6  4  0
  2 15  4  0
  3  5  4  0
  3  6  4  0
  4 21  4  0
  4 29  4  0
  5 15  4  0
  5 28  1  0
  6 16  4  0
  7 18  4  0
  7 26  4  0
  8 18  1  0
  8 19  4  0
  8 22  4  0
  9 12  4  0
  9 19  4  0
 10 12  4  0
 10 22  4  0
 11 20  4  0
 11 21  4  0
 12 23  1  0
 13 20  4  0
 13 29  4  0
 14 17  4  0
 14 28  4  0
 15 25  2  0
 16 27  4  0
 17 18  4  0
 20 27  1  0
 24 27  4  0
 26 28  4  0
M  END
$$$$

 Created by Python create_sdf_string function

 29 33  0  0  0  0  0  0  0  0999 V2000
    8.8270   -7.0288   18.4251 C   0  0  0  0  0  0  0  0  0  0  0  0
    9.1576   -4.6236   15.8860 O   0  0  0  0  0  0  0  0  0  0  0  0
    9.1509   -5.9108   17.7177 C   0  0  0  0  0  0  0  0  0  0  0  0
    3.6373   -9.5349   16.0582 N   0  0  0  0  0  0  0  0  0  0  0  0
    9.9275   -4.8001   18.0438 N   0  0  0  0  0  0  0  0  0  0  0  0
    8.5908   -5.7425   16.4412 C   0  0  0  0  0  0  0  0  0  0  0  0
   10.5993   -4.8981   21.6068 C   0  0  0  0  0  0  0  0  0  0  0  0
   10.4258   -3.0106   23.0998 C   0  0  0  0  0  0  0  0  0  0  0  0
   10.2148   -3.4364   25.4200 C   0  0  0  0  0  0  0  0  0  0  0  0
    9.7853   -1.1840   24.4927 C   0  0  0  0  0  0  0  0  0  0  0  0
    5.0276   -8.5227   17.5352 C   0  0  0  0  0  0  0  0  0  0  0  0
    9.8187   -2.0895   25.5800 C   0  0  0  0  0  0  0  0  0  0  0  0
    5.6473   -8.7216   15.3158 C   0  0  0  0  0  0  0  0  0  0  0  0
   10.7581   -3.1233   19.4720 N   0  0  0  0  0  0  0  0  0  0  0  0
    9.9571   -4.0573   16.8866 C   0  0  0  0  0  0  0  0  0  0  0  0
    7.6213   -6.5618   16.0087 C   0  0  0  0  0  0  0  0  0  0  0  0
   10.8583   -2.6527   20.7222 C   0  0  0  0  0  0  0  0  0  0  0  0
   10.6412   -3.5089   21.7936 C   0  0  0  0  0  0  0  0  0  0  0  0
   10.4972   -3.8968   24.1589 C   0  0  0  0  0  0  0  0  0  0  0  0
    5.9260   -8.2736   16.5517 C   0  0  0  0  0  0  0  0  0  0  0  0
    3.8816   -9.1166   17.2493 C   0  0  0  0  0  0  0  0  0  0  0  0
   10.1297   -1.6575   23.2324 C   0  0  0  0  0  0  0  0  0  0  0  0
    9.4684   -1.6929   26.7263 F   0  0  0  0  0  0  0  0  0  0  0  0
    7.7963   -7.7906   17.9837 C   0  0  0  0  0  0  0  0  0  0  0  0
   10.5884   -3.0725   16.7902 O   0  0  0  0  0  0  0  0  0  0  0  0
   10.4323   -5.3494   20.3516 C   0  0  0  0  0  0  0  0  0  0  0  0
    7.1156   -7.5454   16.8218 C   0  0  0  0  0  0  0  0  0  0  0  0
   10.3885   -4.4388   19.2773 C   0  0  0  0  0  0  0  0  0  0  0  0
    4.5160   -9.3822   15.0841 C   0  0  0  0  0  0  0  0  0  0  0  0
  1  3  4  0
  1 24  4  0
  2  6  4  0
  2 15  4  0
  3  5  4  0
  3  6  4  0
  4 21  4  0
  4 29  4  0
  5 15  4  0
  5 28  1  0
  6 16  4  0
  7 18  4  0
  7 26  4  0
  8 18  1  0
  8 19  4  0
  8 22  4  0
  9 12  4  0
  9 19  4  0
 10 12  4  0
 10 22  4  0
 11 20  4  0
 11 21  4  0
 12 23  1  0
 13 20  4  0
 13 29  4  0
 14 17  4  0
 14 28  4  0
 15 25  2  0
 16 27  4  0
 17 18  4  0
 20 27  1  0
 24 27  4  0
 26 28  4  0
M  END
$$$$

 Created by Python create_sdf_string function

 29 33  0  0  0  0  0  0  0  0999 V2000
    8.8270   -7.0288   18.4251 C   0  0  0  0  0  0  0  0  0  0  0  0
    9.1576   -4.6236   15.8860 O   0  0  0  0  0  0  0  0  0  0  0  0
    9.1509   -5.9108   17.7177 C   0  0  0  0  0  0  0  0  0  0  0  0
    3.6373   -9.5349   16.0582 N   0  0  0  0  0  0  0  0  0  0  0  0
    9.9275   -4.8001   18.0438 N   0  0  0  0  0  0  0  0  0  0  0  0
    8.5908   -5.7425   16.4412 C   0  0  0  0  0  0  0  0  0  0  0  0
   10.5993   -4.8981   21.6068 C   0  0  0  0  0  0  0  0  0  0  0  0
   10.4258   -3.0106   23.0998 C   0  0  0  0  0  0  0  0  0  0  0  0
   10.2148   -3.4364   25.4200 C   0  0  0  0  0  0  0  0  0  0  0  0
    9.7853   -1.1840   24.4927 C   0  0  0  0  0  0  0  0  0  0  0  0
    5.0276   -8.5227   17.5352 C   0  0  0  0  0  0  0  0  0  0  0  0
    9.8187   -2.0895   25.5800 C   0  0  0  0  0  0  0  0  0  0  0  0
    5.6473   -8.7216   15.3158 C   0  0  0  0  0  0  0  0  0  0  0  0
   10.7581   -3.1233   19.4720 N   0  0  0  0  0  0  0  0  0  0  0  0
    9.9571   -4.0573   16.8866 C   0  0  0  0  0  0  0  0  0  0  0  0
    7.6213   -6.5618   16.0087 C   0  0  0  0  0  0  0  0  0  0  0  0
   10.8583   -2.6527   20.7222 C   0  0  0  0  0  0  0  0  0  0  0  0
   10.6412   -3.5089   21.7936 C   0  0  0  0  0  0  0  0  0  0  0  0
   10.4972   -3.8968   24.1589 C   0  0  0  0  0  0  0  0  0  0  0  0
    5.9260   -8.2736   16.5517 C   0  0  0  0  0  0  0  0  0  0  0  0
    3.8816   -9.1166   17.2493 C   0  0  0  0  0  0  0  0  0  0  0  0
   10.1297   -1.6575   23.2324 C   0  0  0  0  0  0  0  0  0  0  0  0
    9.4684   -1.6929   26.7263 F   0  0  0  0  0  0  0  0  0  0  0  0
    7.7963   -7.7906   17.9837 C   0  0  0  0  0  0  0  0  0  0  0  0
   10.5884   -3.0725   16.7902 O   0  0  0  0  0  0  0  0  0  0  0  0
   10.4323   -5.3494   20.3516 C   0  0  0  0  0  0  0  0  0  0  0  0
    7.1156   -7.5454   16.8218 C   0  0  0  0  0  0  0  0  0  0  0  0
   10.3885   -4.4388   19.2773 C   0  0  0  0  0  0  0  0  0  0  0  0
    4.5160   -9.3822   15.0841 C   0  0  0  0  0  0  0  0  0  0  0  0
  1  3  4  0
  1 24  4  0
  2  6  4  0
  2 15  4  0
  3  5  4  0
  3  6  4  0
  4 21  4  0
  4 29  4  0
  5 15  4  0
  5 28  1  0
  6 16  4  0
  7 18  4  0
  7 26  4  0
  8 18  1  0
  8 19  4  0
  8 22  4  0
  9 12  4  0
  9 19  4  0
 10 12  4  0
 10 22  4  0
 11 20  4  0
 11 21  4  0
 12 23  1  0
 13 20  4  0
 13 29  4  0
 14 17  4  0
 14 28  4  0
 15 25  2  0
 16 27  4  0
 17 18  4  0
 20 27  1  0
 24 27  4  0
 26 28  4  0
M  END
$$$$

 Created by Python create_sdf_string function

 29 33  0  0  0  0  0  0  0  0999 V2000
    8.8270   -7.0288   18.4251 C   0  0  0  0  0  0  0  0  0  0  0  0
    9.1576   -4.6236   15.8860 O   0  0  0  0  0  0  0  0  0  0  0  0
    9.1509   -5.9108   17.7177 C   0  0  0  0  0  0  0  0  0  0  0  0
    3.6373   -9.5349   16.0582 N   0  0  0  0  0  0  0  0  0  0  0  0
    9.9275   -4.8001   18.0438 N   0  0  0  0  0  0  0  0  0  0  0  0
    8.5908   -5.7425   16.4412 C   0  0  0  0  0  0  0  0  0  0  0  0
   10.5993   -4.8981   21.6068 C   0  0  0  0  0  0  0  0  0  0  0  0
   10.4258   -3.0106   23.0998 C   0  0  0  0  0  0  0  0  0  0  0  0
   10.2148   -3.4364   25.4200 C   0  0  0  0  0  0  0  0  0  0  0  0
    9.7853   -1.1840   24.4927 C   0  0  0  0  0  0  0  0  0  0  0  0
    5.0276   -8.5227   17.5352 C   0  0  0  0  0  0  0  0  0  0  0  0
    9.8187   -2.0895   25.5800 C   0  0  0  0  0  0  0  0  0  0  0  0
    5.6473   -8.7216   15.3158 C   0  0  0  0  0  0  0  0  0  0  0  0
   10.7581   -3.1233   19.4720 N   0  0  0  0  0  0  0  0  0  0  0  0
    9.9571   -4.0573   16.8866 C   0  0  0  0  0  0  0  0  0  0  0  0
    7.6213   -6.5618   16.0087 C   0  0  0  0  0  0  0  0  0  0  0  0
   10.8583   -2.6527   20.7222 C   0  0  0  0  0  0  0  0  0  0  0  0
   10.6412   -3.5089   21.7936 C   0  0  0  0  0  0  0  0  0  0  0  0
   10.4972   -3.8968   24.1589 C   0  0  0  0  0  0  0  0  0  0  0  0
    5.9260   -8.2736   16.5517 C   0  0  0  0  0  0  0  0  0  0  0  0
    3.8816   -9.1166   17.2493 C   0  0  0  0  0  0  0  0  0  0  0  0
   10.1297   -1.6575   23.2324 C   0  0  0  0  0  0  0  0  0  0  0  0
    9.4684   -1.6929   26.7263 F   0  0  0  0  0  0  0  0  0  0  0  0
    7.7963   -7.7906   17.9837 C   0  0  0  0  0  0  0  0  0  0  0  0
   10.5884   -3.0725   16.7902 O   0  0  0  0  0  0  0  0  0  0  0  0
   10.4323   -5.3494   20.3516 C   0  0  0  0  0  0  0  0  0  0  0  0
    7.1156   -7.5454   16.8218 C   0  0  0  0  0  0  0  0  0  0  0  0
   10.3885   -4.4388   19.2773 C   0  0  0  0  0  0  0  0  0  0  0  0
    4.5160   -9.3822   15.0841 C   0  0  0  0  0  0  0  0  0  0  0  0
  1  3  4  0
  1 24  4  0
  2  6  4  0
  2 15  4  0
  3  5  4  0
  3  6  4  0
  4 21  4  0
  4 29  4  0
  5 15  4  0
  5 28  1  0
  6 16  4  0
  7 18  4  0
  7 26  4  0
  8 18  1  0
  8 19  4  0
  8 22  4  0
  9 12  4  0
  9 19  4  0
 10 12  4  0
 10 22  4  0
 11 20  4  0
 11 21  4  0
 12 23  1  0
 13 20  4  0
 13 29  4  0
 14 17  4  0
 14 28  4  0
 15 25  2  0
 16 27  4  0
 17 18  4  0
 20 27  1  0
 24 27  4  0
 26 28  4  0
M  END
$$$$

 Created by Python create_sdf_string function

 29 33  0  0  0  0  0  0  0  0999 V2000
    8.8270   -7.0288   18.4251 C   0  0  0  0  0  0  0  0  0  0  0  0
    9.1576   -4.6236   15.8860 O   0  0  0  0  0  0  0  0  0  0  0  0
    9.1509   -5.9108   17.7177 C   0  0  0  0  0  0  0  0  0  0  0  0
    3.6373   -9.5349   16.0582 N   0  0  0  0  0  0  0  0  0  0  0  0
    9.9275   -4.8001   18.0438 N   0  0  0  0  0  0  0  0  0  0  0  0
    8.5908   -5.7425   16.4412 C   0  0  0  0  0  0  0  0  0  0  0  0
   10.5993   -4.8981   21.6068 C   0  0  0  0  0  0  0  0  0  0  0  0
   10.4258   -3.0106   23.0998 C   0  0  0  0  0  0  0  0  0  0  0  0
   10.2148   -3.4364   25.4200 C   0  0  0  0  0  0  0  0  0  0  0  0
    9.7853   -1.1840   24.4927 C   0  0  0  0  0  0  0  0  0  0  0  0
    5.0276   -8.5227   17.5352 C   0  0  0  0  0  0  0  0  0  0  0  0
    9.8187   -2.0895   25.5800 C   0  0  0  0  0  0  0  0  0  0  0  0
    5.6473   -8.7216   15.3158 C   0  0  0  0  0  0  0  0  0  0  0  0
   10.7581   -3.1233   19.4720 N   0  0  0  0  0  0  0  0  0  0  0  0
    9.9571   -4.0573   16.8866 C   0  0  0  0  0  0  0  0  0  0  0  0
    7.6213   -6.5618   16.0087 C   0  0  0  0  0  0  0  0  0  0  0  0
   10.8583   -2.6527   20.7222 C   0  0  0  0  0  0  0  0  0  0  0  0
   10.6412   -3.5089   21.7936 C   0  0  0  0  0  0  0  0  0  0  0  0
   10.4972   -3.8968   24.1589 C   0  0  0  0  0  0  0  0  0  0  0  0
    5.9260   -8.2736   16.5517 C   0  0  0  0  0  0  0  0  0  0  0  0
    3.8816   -9.1166   17.2493 C   0  0  0  0  0  0  0  0  0  0  0  0
   10.1297   -1.6575   23.2324 C   0  0  0  0  0  0  0  0  0  0  0  0
    9.4684   -1.6929   26.7263 F   0  0  0  0  0  0  0  0  0  0  0  0
    7.7963   -7.7906   17.9837 C   0  0  0  0  0  0  0  0  0  0  0  0
   10.5884   -3.0725   16.7902 O   0  0  0  0  0  0  0  0  0  0  0  0
   10.4323   -5.3494   20.3516 C   0  0  0  0  0  0  0  0  0  0  0  0
    7.1156   -7.5454   16.8218 C   0  0  0  0  0  0  0  0  0  0  0  0
   10.3885   -4.4388   19.2773 C   0  0  0  0  0  0  0  0  0  0  0  0
    4.5160   -9.3822   15.0841 C   0  0  0  0  0  0  0  0  0  0  0  0
  1  3  4  0
  1 24  4  0
  2  6  4  0
  2 15  4  0
  3  5  4  0
  3  6  4  0
  4 21  4  0
  4 29  4  0
  5 15  4  0
  5 28  1  0
  6 16  4  0
  7 18  4  0
  7 26  4  0
  8 18  1  0
  8 19  4  0
  8 22  4  0
  9 12  4  0
  9 19  4  0
 10 12  4  0
 10 22  4  0
 11 20  4  0
 11 21  4  0
 12 23  1  0
 13 20  4  0
 13 29  4  0
 14 17  4  0
 14 28  4  0
 15 25  2  0
 16 27  4  0
 17 18  4  0
 20 27  1  0
 24 27  4  0
 26 28  4  0
M  END
$$$$

 Created by Python create_sdf_string function

 29 33  0  0  0  0  0  0  0  0999 V2000
    8.8270   -7.0288   18.4251 C   0  0  0  0  0  0  0  0  0  0  0  0
    9.1576   -4.6236   15.8860 O   0  0  0  0  0  0  0  0  0  0  0  0
    9.1509   -5.9108   17.7177 C   0  0  0  0  0  0  0  0  0  0  0  0
    3.6373   -9.5349   16.0582 N   0  0  0  0  0  0  0  0  0  0  0  0
    9.9275   -4.8001   18.0438 N   0  0  0  0  0  0  0  0  0  0  0  0
    8.5908   -5.7425   16.4412 C   0  0  0  0  0  0  0  0  0  0  0  0
   10.5993   -4.8981   21.6068 C   0  0  0  0  0  0  0  0  0  0  0  0
   10.4258   -3.0106   23.0998 C   0  0  0  0  0  0  0  0  0  0  0  0
   10.2148   -3.4364   25.4200 C   0  0  0  0  0  0  0  0  0  0  0  0
    9.7853   -1.1840   24.4927 C   0  0  0  0  0  0  0  0  0  0  0  0
    5.0276   -8.5227   17.5352 C   0  0  0  0  0  0  0  0  0  0  0  0
    9.8187   -2.0895   25.5800 C   0  0  0  0  0  0  0  0  0  0  0  0
    5.6473   -8.7216   15.3158 C   0  0  0  0  0  0  0  0  0  0  0  0
   10.7581   -3.1233   19.4720 N   0  0  0  0  0  0  0  0  0  0  0  0
    9.9571   -4.0573   16.8866 C   0  0  0  0  0  0  0  0  0  0  0  0
    7.6213   -6.5618   16.0087 C   0  0  0  0  0  0  0  0  0  0  0  0
   10.8583   -2.6527   20.7222 C   0  0  0  0  0  0  0  0  0  0  0  0
   10.6412   -3.5089   21.7936 C   0  0  0  0  0  0  0  0  0  0  0  0
   10.4972   -3.8968   24.1589 C   0  0  0  0  0  0  0  0  0  0  0  0
    5.9260   -8.2736   16.5517 C   0  0  0  0  0  0  0  0  0  0  0  0
    3.8816   -9.1166   17.2493 C   0  0  0  0  0  0  0  0  0  0  0  0
   10.1297   -1.6575   23.2324 C   0  0  0  0  0  0  0  0  0  0  0  0
    9.4684   -1.6929   26.7263 F   0  0  0  0  0  0  0  0  0  0  0  0
    7.7963   -7.7906   17.9837 C   0  0  0  0  0  0  0  0  0  0  0  0
   10.5884   -3.0725   16.7902 O   0  0  0  0  0  0  0  0  0  0  0  0
   10.4323   -5.3494   20.3516 C   0  0  0  0  0  0  0  0  0  0  0  0
    7.1156   -7.5454   16.8218 C   0  0  0  0  0  0  0  0  0  0  0  0
   10.3885   -4.4388   19.2773 C   0  0  0  0  0  0  0  0  0  0  0  0
    4.5160   -9.3822   15.0841 C   0  0  0  0  0  0  0  0  0  0  0  0
  1  3  4  0
  1 24  4  0
  2  6  4  0
  2 15  4  0
  3  5  4  0
  3  6  4  0
  4 21  4  0
  4 29  4  0
  5 15  4  0
  5 28  1  0
  6 16  4  0
  7 18  4  0
  7 26  4  0
  8 18  1  0
  8 19  4  0
  8 22  4  0
  9 12  4  0
  9 19  4  0
 10 12  4  0
 10 22  4  0
 11 20  4  0
 11 21  4  0
 12 23  1  0
 13 20  4  0
 13 29  4  0
 14 17  4  0
 14 28  4  0
 15 25  2  0
 16 27  4  0
 17 18  4  0
 20 27  1  0
 24 27  4  0
 26 28  4  0
M  END
$$$$

 Created by Python create_sdf_string function

 29 33  0  0  0  0  0  0  0  0999 V2000
    8.8270   -7.0288   18.4251 C   0  0  0  0  0  0  0  0  0  0  0  0
    9.1576   -4.6236   15.8860 O   0  0  0  0  0  0  0  0  0  0  0  0
    9.1509   -5.9108   17.7177 C   0  0  0  0  0  0  0  0  0  0  0  0
    3.6373   -9.5349   16.0582 N   0  0  0  0  0  0  0  0  0  0  0  0
    9.9275   -4.8001   18.0438 N   0  0  0  0  0  0  0  0  0  0  0  0
    8.5908   -5.7425   16.4412 C   0  0  0  0  0  0  0  0  0  0  0  0
   10.5993   -4.8981   21.6068 C   0  0  0  0  0  0  0  0  0  0  0  0
   10.4258   -3.0106   23.0998 C   0  0  0  0  0  0  0  0  0  0  0  0
   10.2148   -3.4364   25.4200 C   0  0  0  0  0  0  0  0  0  0  0  0
    9.7853   -1.1840   24.4927 C   0  0  0  0  0  0  0  0  0  0  0  0
    5.0276   -8.5227   17.5352 C   0  0  0  0  0  0  0  0  0  0  0  0
    9.8187   -2.0895   25.5800 C   0  0  0  0  0  0  0  0  0  0  0  0
    5.6473   -8.7216   15.3158 C   0  0  0  0  0  0  0  0  0  0  0  0
   10.7581   -3.1233   19.4720 N   0  0  0  0  0  0  0  0  0  0  0  0
    9.9571   -4.0573   16.8866 C   0  0  0  0  0  0  0  0  0  0  0  0
    7.6213   -6.5618   16.0087 C   0  0  0  0  0  0  0  0  0  0  0  0
   10.8583   -2.6527   20.7222 C   0  0  0  0  0  0  0  0  0  0  0  0
   10.6412   -3.5089   21.7936 C   0  0  0  0  0  0  0  0  0  0  0  0
   10.4972   -3.8968   24.1589 C   0  0  0  0  0  0  0  0  0  0  0  0
    5.9260   -8.2736   16.5517 C   0  0  0  0  0  0  0  0  0  0  0  0
    3.8816   -9.1166   17.2493 C   0  0  0  0  0  0  0  0  0  0  0  0
   10.1297   -1.6575   23.2324 C   0  0  0  0  0  0  0  0  0  0  0  0
    9.4684   -1.6929   26.7263 F   0  0  0  0  0  0  0  0  0  0  0  0
    7.7963   -7.7906   17.9837 C   0  0  0  0  0  0  0  0  0  0  0  0
   10.5884   -3.0725   16.7902 O   0  0  0  0  0  0  0  0  0  0  0  0
   10.4323   -5.3494   20.3516 C   0  0  0  0  0  0  0  0  0  0  0  0
    7.1156   -7.5454   16.8218 C   0  0  0  0  0  0  0  0  0  0  0  0
   10.3885   -4.4388   19.2773 C   0  0  0  0  0  0  0  0  0  0  0  0
    4.5160   -9.3822   15.0841 C   0  0  0  0  0  0  0  0  0  0  0  0
  1  3  4  0
  1 24  4  0
  2  6  4  0
  2 15  4  0
  3  5  4  0
  3  6  4  0
  4 21  4  0
  4 29  4  0
  5 15  4  0
  5 28  1  0
  6 16  4  0
  7 18  4  0
  7 26  4  0
  8 18  1  0
  8 19  4  0
  8 22  4  0
  9 12  4  0
  9 19  4  0
 10 12  4  0
 10 22  4  0
 11 20  4  0
 11 21  4  0
 12 23  1  0
 13 20  4  0
 13 29  4  0
 14 17  4  0
 14 28  4  0
 15 25  2  0
 16 27  4  0
 17 18  4  0
 20 27  1  0
 24 27  4  0
 26 28  4  0
M  END
$$$$

 Created by Python create_sdf_string function

 29 33  0  0  0  0  0  0  0  0999 V2000
    8.8270   -7.0288   18.4251 C   0  0  0  0  0  0  0  0  0  0  0  0
    9.1576   -4.6236   15.8860 O   0  0  0  0  0  0  0  0  0  0  0  0
    9.1509   -5.9108   17.7177 C   0  0  0  0  0  0  0  0  0  0  0  0
    3.6373   -9.5349   16.0582 N   0  0  0  0  0  0  0  0  0  0  0  0
    9.9275   -4.8001   18.0438 N   0  0  0  0  0  0  0  0  0  0  0  0
    8.5908   -5.7425   16.4412 C   0  0  0  0  0  0  0  0  0  0  0  0
   10.5993   -4.8981   21.6068 C   0  0  0  0  0  0  0  0  0  0  0  0
   10.4258   -3.0106   23.0998 C   0  0  0  0  0  0  0  0  0  0  0  0
   10.2148   -3.4364   25.4200 C   0  0  0  0  0  0  0  0  0  0  0  0
    9.7853   -1.1840   24.4927 C   0  0  0  0  0  0  0  0  0  0  0  0
    5.0276   -8.5227   17.5352 C   0  0  0  0  0  0  0  0  0  0  0  0
    9.8187   -2.0895   25.5800 C   0  0  0  0  0  0  0  0  0  0  0  0
    5.6473   -8.7216   15.3158 C   0  0  0  0  0  0  0  0  0  0  0  0
   10.7581   -3.1233   19.4720 N   0  0  0  0  0  0  0  0  0  0  0  0
    9.9571   -4.0573   16.8866 C   0  0  0  0  0  0  0  0  0  0  0  0
    7.6213   -6.5618   16.0087 C   0  0  0  0  0  0  0  0  0  0  0  0
   10.8583   -2.6527   20.7222 C   0  0  0  0  0  0  0  0  0  0  0  0
   10.6412   -3.5089   21.7936 C   0  0  0  0  0  0  0  0  0  0  0  0
   10.4972   -3.8968   24.1589 C   0  0  0  0  0  0  0  0  0  0  0  0
    5.9260   -8.2736   16.5517 C   0  0  0  0  0  0  0  0  0  0  0  0
    3.8816   -9.1166   17.2493 C   0  0  0  0  0  0  0  0  0  0  0  0
   10.1297   -1.6575   23.2324 C   0  0  0  0  0  0  0  0  0  0  0  0
    9.4684   -1.6929   26.7263 F   0  0  0  0  0  0  0  0  0  0  0  0
    7.7963   -7.7906   17.9837 C   0  0  0  0  0  0  0  0  0  0  0  0
   10.5884   -3.0725   16.7902 O   0  0  0  0  0  0  0  0  0  0  0  0
   10.4323   -5.3494   20.3516 C   0  0  0  0  0  0  0  0  0  0  0  0
    7.1156   -7.5454   16.8218 C   0  0  0  0  0  0  0  0  0  0  0  0
   10.3885   -4.4388   19.2773 C   0  0  0  0  0  0  0  0  0  0  0  0
    4.5160   -9.3822   15.0841 C   0  0  0  0  0  0  0  0  0  0  0  0
  1  3  4  0
  1 24  4  0
  2  6  4  0
  2 15  4  0
  3  5  4  0
  3  6  4  0
  4 21  4  0
  4 29  4  0
  5 15  4  0
  5 28  1  0
  6 16  4  0
  7 18  4  0
  7 26  4  0
  8 18  1  0
  8 19  4  0
  8 22  4  0
  9 12  4  0
  9 19  4  0
 10 12  4  0
 10 22  4  0
 11 20  4  0
 11 21  4  0
 12 23  1  0
 13 20  4  0
 13 29  4  0
 14 17  4  0
 14 28  4  0
 15 25  2  0
 16 27  4  0
 17 18  4  0
 20 27  1  0
 24 27  4  0
 26 28  4  0
M  END
$$$$

 Created by Python create_sdf_string function

 29 33  0  0  0  0  0  0  0  0999 V2000
    8.8270   -7.0288   18.4251 C   0  0  0  0  0  0  0  0  0  0  0  0
    9.1576   -4.6236   15.8860 O   0  0  0  0  0  0  0  0  0  0  0  0
    9.1509   -5.9108   17.7177 C   0  0  0  0  0  0  0  0  0  0  0  0
    3.6373   -9.5349   16.0582 N   0  0  0  0  0  0  0  0  0  0  0  0
    9.9275   -4.8001   18.0438 N   0  0  0  0  0  0  0  0  0  0  0  0
    8.5908   -5.7425   16.4412 C   0  0  0  0  0  0  0  0  0  0  0  0
   10.5993   -4.8981   21.6068 C   0  0  0  0  0  0  0  0  0  0  0  0
   10.4258   -3.0106   23.0998 C   0  0  0  0  0  0  0  0  0  0  0  0
   10.2148   -3.4364   25.4200 C   0  0  0  0  0  0  0  0  0  0  0  0
    9.7853   -1.1840   24.4927 C   0  0  0  0  0  0  0  0  0  0  0  0
    5.0276   -8.5227   17.5352 C   0  0  0  0  0  0  0  0  0  0  0  0
    9.8187   -2.0895   25.5800 C   0  0  0  0  0  0  0  0  0  0  0  0
    5.6473   -8.7216   15.3158 C   0  0  0  0  0  0  0  0  0  0  0  0
   10.7581   -3.1233   19.4720 N   0  0  0  0  0  0  0  0  0  0  0  0
    9.9571   -4.0573   16.8866 C   0  0  0  0  0  0  0  0  0  0  0  0
    7.6213   -6.5618   16.0087 C   0  0  0  0  0  0  0  0  0  0  0  0
   10.8583   -2.6527   20.7222 C   0  0  0  0  0  0  0  0  0  0  0  0
   10.6412   -3.5089   21.7936 C   0  0  0  0  0  0  0  0  0  0  0  0
   10.4972   -3.8968   24.1589 C   0  0  0  0  0  0  0  0  0  0  0  0
    5.9260   -8.2736   16.5517 C   0  0  0  0  0  0  0  0  0  0  0  0
    3.8816   -9.1166   17.2493 C   0  0  0  0  0  0  0  0  0  0  0  0
   10.1297   -1.6575   23.2324 C   0  0  0  0  0  0  0  0  0  0  0  0
    9.4684   -1.6929   26.7263 F   0  0  0  0  0  0  0  0  0  0  0  0
    7.7963   -7.7906   17.9837 C   0  0  0  0  0  0  0  0  0  0  0  0
   10.5884   -3.0725   16.7902 O   0  0  0  0  0  0  0  0  0  0  0  0
   10.4323   -5.3494   20.3516 C   0  0  0  0  0  0  0  0  0  0  0  0
    7.1156   -7.5454   16.8218 C   0  0  0  0  0  0  0  0  0  0  0  0
   10.3885   -4.4388   19.2773 C   0  0  0  0  0  0  0  0  0  0  0  0
    4.5160   -9.3822   15.0841 C   0  0  0  0  0  0  0  0  0  0  0  0
  1  3  4  0
  1 24  4  0
  2  6  4  0
  2 15  4  0
  3  5  4  0
  3  6  4  0
  4 21  4  0
  4 29  4  0
  5 15  4  0
  5 28  1  0
  6 16  4  0
  7 18  4  0
  7 26  4  0
  8 18  1  0
  8 19  4  0
  8 22  4  0
  9 12  4  0
  9 19  4  0
 10 12  4  0
 10 22  4  0
 11 20  4  0
 11 21  4  0
 12 23  1  0
 13 20  4  0
 13 29  4  0
 14 17  4  0
 14 28  4  0
 15 25  2  0
 16 27  4  0
 17 18  4  0
 20 27  1  0
 24 27  4  0
 26 28  4  0
M  END
$$$$

 Created by Python create_sdf_string function

 29 33  0  0  0  0  0  0  0  0999 V2000
    8.8270   -7.0288   18.4251 C   0  0  0  0  0  0  0  0  0  0  0  0
    9.1576   -4.6236   15.8860 O   0  0  0  0  0  0  0  0  0  0  0  0
    9.1509   -5.9108   17.7177 C   0  0  0  0  0  0  0  0  0  0  0  0
    3.6373   -9.5349   16.0582 N   0  0  0  0  0  0  0  0  0  0  0  0
    9.9275   -4.8001   18.0438 N   0  0  0  0  0  0  0  0  0  0  0  0
    8.5908   -5.7425   16.4412 C   0  0  0  0  0  0  0  0  0  0  0  0
   10.5993   -4.8981   21.6068 C   0  0  0  0  0  0  0  0  0  0  0  0
   10.4258   -3.0106   23.0998 C   0  0  0  0  0  0  0  0  0  0  0  0
   10.2148   -3.4364   25.4200 C   0  0  0  0  0  0  0  0  0  0  0  0
    9.7853   -1.1840   24.4927 C   0  0  0  0  0  0  0  0  0  0  0  0
    5.0276   -8.5227   17.5352 C   0  0  0  0  0  0  0  0  0  0  0  0
    9.8187   -2.0895   25.5800 C   0  0  0  0  0  0  0  0  0  0  0  0
    5.6473   -8.7216   15.3158 C   0  0  0  0  0  0  0  0  0  0  0  0
   10.7581   -3.1233   19.4720 N   0  0  0  0  0  0  0  0  0  0  0  0
    9.9571   -4.0573   16.8866 C   0  0  0  0  0  0  0  0  0  0  0  0
    7.6213   -6.5618   16.0087 C   0  0  0  0  0  0  0  0  0  0  0  0
   10.8583   -2.6527   20.7222 C   0  0  0  0  0  0  0  0  0  0  0  0
   10.6412   -3.5089   21.7936 C   0  0  0  0  0  0  0  0  0  0  0  0
   10.4972   -3.8968   24.1589 C   0  0  0  0  0  0  0  0  0  0  0  0
    5.9260   -8.2736   16.5517 C   0  0  0  0  0  0  0  0  0  0  0  0
    3.8816   -9.1166   17.2493 C   0  0  0  0  0  0  0  0  0  0  0  0
   10.1297   -1.6575   23.2324 C   0  0  0  0  0  0  0  0  0  0  0  0
    9.4684   -1.6929   26.7263 F   0  0  0  0  0  0  0  0  0  0  0  0
    7.7963   -7.7906   17.9837 C   0  0  0  0  0  0  0  0  0  0  0  0
   10.5884   -3.0725   16.7902 O   0  0  0  0  0  0  0  0  0  0  0  0
   10.4323   -5.3494   20.3516 C   0  0  0  0  0  0  0  0  0  0  0  0
    7.1156   -7.5454   16.8218 C   0  0  0  0  0  0  0  0  0  0  0  0
   10.3885   -4.4388   19.2773 C   0  0  0  0  0  0  0  0  0  0  0  0
    4.5160   -9.3822   15.0841 C   0  0  0  0  0  0  0  0  0  0  0  0
  1  3  4  0
  1 24  4  0
  2  6  4  0
  2 15  4  0
  3  5  4  0
  3  6  4  0
  4 21  4  0
  4 29  4  0
  5 15  4  0
  5 28  1  0
  6 16  4  0
  7 18  4  0
  7 26  4  0
  8 18  1  0
  8 19  4  0
  8 22  4  0
  9 12  4  0
  9 19  4  0
 10 12  4  0
 10 22  4  0
 11 20  4  0
 11 21  4  0
 12 23  1  0
 13 20  4  0
 13 29  4  0
 14 17  4  0
 14 28  4  0
 15 25  2  0
 16 27  4  0
 17 18  4  0
 20 27  1  0
 24 27  4  0
 26 28  4  0
M  END
$$$$

 Created by Python create_sdf_string function

 29 33  0  0  0  0  0  0  0  0999 V2000
    8.8270   -7.0288   18.4251 C   0  0  0  0  0  0  0  0  0  0  0  0
    9.1576   -4.6236   15.8860 O   0  0  0  0  0  0  0  0  0  0  0  0
    9.1509   -5.9108   17.7177 C   0  0  0  0  0  0  0  0  0  0  0  0
    3.6373   -9.5349   16.0582 N   0  0  0  0  0  0  0  0  0  0  0  0
    9.9275   -4.8001   18.0438 N   0  0  0  0  0  0  0  0  0  0  0  0
    8.5908   -5.7425   16.4412 C   0  0  0  0  0  0  0  0  0  0  0  0
   10.5993   -4.8981   21.6068 C   0  0  0  0  0  0  0  0  0  0  0  0
   10.4258   -3.0106   23.0998 C   0  0  0  0  0  0  0  0  0  0  0  0
   10.2148   -3.4364   25.4200 C   0  0  0  0  0  0  0  0  0  0  0  0
    9.7853   -1.1840   24.4927 C   0  0  0  0  0  0  0  0  0  0  0  0
    5.0276   -8.5227   17.5352 C   0  0  0  0  0  0  0  0  0  0  0  0
    9.8187   -2.0895   25.5800 C   0  0  0  0  0  0  0  0  0  0  0  0
    5.6473   -8.7216   15.3158 C   0  0  0  0  0  0  0  0  0  0  0  0
   10.7581   -3.1233   19.4720 N   0  0  0  0  0  0  0  0  0  0  0  0
    9.9571   -4.0573   16.8866 C   0  0  0  0  0  0  0  0  0  0  0  0
    7.6213   -6.5618   16.0087 C   0  0  0  0  0  0  0  0  0  0  0  0
   10.8583   -2.6527   20.7222 C   0  0  0  0  0  0  0  0  0  0  0  0
   10.6412   -3.5089   21.7936 C   0  0  0  0  0  0  0  0  0  0  0  0
   10.4972   -3.8968   24.1589 C   0  0  0  0  0  0  0  0  0  0  0  0
    5.9260   -8.2736   16.5517 C   0  0  0  0  0  0  0  0  0  0  0  0
    3.8816   -9.1166   17.2493 C   0  0  0  0  0  0  0  0  0  0  0  0
   10.1297   -1.6575   23.2324 C   0  0  0  0  0  0  0  0  0  0  0  0
    9.4684   -1.6929   26.7263 F   0  0  0  0  0  0  0  0  0  0  0  0
    7.7963   -7.7906   17.9837 C   0  0  0  0  0  0  0  0  0  0  0  0
   10.5884   -3.0725   16.7902 O   0  0  0  0  0  0  0  0  0  0  0  0
   10.4323   -5.3494   20.3516 C   0  0  0  0  0  0  0  0  0  0  0  0
    7.1156   -7.5454   16.8218 C   0  0  0  0  0  0  0  0  0  0  0  0
   10.3885   -4.4388   19.2773 C   0  0  0  0  0  0  0  0  0  0  0  0
    4.5160   -9.3822   15.0841 C   0  0  0  0  0  0  0  0  0  0  0  0
  1  3  4  0
  1 24  4  0
  2  6  4  0
  2 15  4  0
  3  5  4  0
  3  6  4  0
  4 21  4  0
  4 29  4  0
  5 15  4  0
  5 28  1  0
  6 16  4  0
  7 18  4  0
  7 26  4  0
  8 18  1  0
  8 19  4  0
  8 22  4  0
  9 12  4  0
  9 19  4  0
 10 12  4  0
 10 22  4  0
 11 20  4  0
 11 21  4  0
 12 23  1  0
 13 20  4  0
 13 29  4  0
 14 17  4  0
 14 28  4  0
 15 25  2  0
 16 27  4  0
 17 18  4  0
 20 27  1  0
 24 27  4  0
 26 28  4  0
M  END
$$$$

 Created by Python create_sdf_string function

 29 33  0  0  0  0  0  0  0  0999 V2000
    8.8270   -7.0288   18.4251 C   0  0  0  0  0  0  0  0  0  0  0  0
    9.1576   -4.6236   15.8860 O   0  0  0  0  0  0  0  0  0  0  0  0
    9.1509   -5.9108   17.7177 C   0  0  0  0  0  0  0  0  0  0  0  0
    3.6373   -9.5349   16.0582 N   0  0  0  0  0  0  0  0  0  0  0  0
    9.9275   -4.8001   18.0438 N   0  0  0  0  0  0  0  0  0  0  0  0
    8.5908   -5.7425   16.4412 C   0  0  0  0  0  0  0  0  0  0  0  0
   10.5993   -4.8981   21.6068 C   0  0  0  0  0  0  0  0  0  0  0  0
   10.4258   -3.0106   23.0998 C   0  0  0  0  0  0  0  0  0  0  0  0
   10.2148   -3.4364   25.4200 C   0  0  0  0  0  0  0  0  0  0  0  0
    9.7853   -1.1840   24.4927 C   0  0  0  0  0  0  0  0  0  0  0  0
    5.0276   -8.5227   17.5352 C   0  0  0  0  0  0  0  0  0  0  0  0
    9.8187   -2.0895   25.5800 C   0  0  0  0  0  0  0  0  0  0  0  0
    5.6473   -8.7216   15.3158 C   0  0  0  0  0  0  0  0  0  0  0  0
   10.7581   -3.1233   19.4720 N   0  0  0  0  0  0  0  0  0  0  0  0
    9.9571   -4.0573   16.8866 C   0  0  0  0  0  0  0  0  0  0  0  0
    7.6213   -6.5618   16.0087 C   0  0  0  0  0  0  0  0  0  0  0  0
   10.8583   -2.6527   20.7222 C   0  0  0  0  0  0  0  0  0  0  0  0
   10.6412   -3.5089   21.7936 C   0  0  0  0  0  0  0  0  0  0  0  0
   10.4972   -3.8968   24.1589 C   0  0  0  0  0  0  0  0  0  0  0  0
    5.9260   -8.2736   16.5517 C   0  0  0  0  0  0  0  0  0  0  0  0
    3.8816   -9.1166   17.2493 C   0  0  0  0  0  0  0  0  0  0  0  0
   10.1297   -1.6575   23.2324 C   0  0  0  0  0  0  0  0  0  0  0  0
    9.4684   -1.6929   26.7263 F   0  0  0  0  0  0  0  0  0  0  0  0
    7.7963   -7.7906   17.9837 C   0  0  0  0  0  0  0  0  0  0  0  0
   10.5884   -3.0725   16.7902 O   0  0  0  0  0  0  0  0  0  0  0  0
   10.4323   -5.3494   20.3516 C   0  0  0  0  0  0  0  0  0  0  0  0
    7.1156   -7.5454   16.8218 C   0  0  0  0  0  0  0  0  0  0  0  0
   10.3885   -4.4388   19.2773 C   0  0  0  0  0  0  0  0  0  0  0  0
    4.5160   -9.3822   15.0841 C   0  0  0  0  0  0  0  0  0  0  0  0
  1  3  4  0
  1 24  4  0
  2  6  4  0
  2 15  4  0
  3  5  4  0
  3  6  4  0
  4 21  4  0
  4 29  4  0
  5 15  4  0
  5 28  1  0
  6 16  4  0
  7 18  4  0
  7 26  4  0
  8 18  1  0
  8 19  4  0
  8 22  4  0
  9 12  4  0
  9 19  4  0
 10 12  4  0
 10 22  4  0
 11 20  4  0
 11 21  4  0
 12 23  1  0
 13 20  4  0
 13 29  4  0
 14 17  4  0
 14 28  4  0
 15 25  2  0
 16 27  4  0
 17 18  4  0
 20 27  1  0
 24 27  4  0
 26 28  4  0
M  END
$$$$

 Created by Python create_sdf_string function

 29 33  0  0  0  0  0  0  0  0999 V2000
    8.8270   -7.0288   18.4251 C   0  0  0  0  0  0  0  0  0  0  0  0
    9.1576   -4.6236   15.8860 O   0  0  0  0  0  0  0  0  0  0  0  0
    9.1509   -5.9108   17.7177 C   0  0  0  0  0  0  0  0  0  0  0  0
    3.6373   -9.5349   16.0582 N   0  0  0  0  0  0  0  0  0  0  0  0
    9.9275   -4.8001   18.0438 N   0  0  0  0  0  0  0  0  0  0  0  0
    8.5908   -5.7425   16.4412 C   0  0  0  0  0  0  0  0  0  0  0  0
   10.5993   -4.8981   21.6068 C   0  0  0  0  0  0  0  0  0  0  0  0
   10.4258   -3.0106   23.0998 C   0  0  0  0  0  0  0  0  0  0  0  0
   10.2148   -3.4364   25.4200 C   0  0  0  0  0  0  0  0  0  0  0  0
    9.7853   -1.1840   24.4927 C   0  0  0  0  0  0  0  0  0  0  0  0
    5.0276   -8.5227   17.5352 C   0  0  0  0  0  0  0  0  0  0  0  0
    9.8187   -2.0895   25.5800 C   0  0  0  0  0  0  0  0  0  0  0  0
    5.6473   -8.7216   15.3158 C   0  0  0  0  0  0  0  0  0  0  0  0
   10.7581   -3.1233   19.4720 N   0  0  0  0  0  0  0  0  0  0  0  0
    9.9571   -4.0573   16.8866 C   0  0  0  0  0  0  0  0  0  0  0  0
    7.6213   -6.5618   16.0087 C   0  0  0  0  0  0  0  0  0  0  0  0
   10.8583   -2.6527   20.7222 C   0  0  0  0  0  0  0  0  0  0  0  0
   10.6412   -3.5089   21.7936 C   0  0  0  0  0  0  0  0  0  0  0  0
   10.4972   -3.8968   24.1589 C   0  0  0  0  0  0  0  0  0  0  0  0
    5.9260   -8.2736   16.5517 C   0  0  0  0  0  0  0  0  0  0  0  0
    3.8816   -9.1166   17.2493 C   0  0  0  0  0  0  0  0  0  0  0  0
   10.1297   -1.6575   23.2324 C   0  0  0  0  0  0  0  0  0  0  0  0
    9.4684   -1.6929   26.7263 F   0  0  0  0  0  0  0  0  0  0  0  0
    7.7963   -7.7906   17.9837 C   0  0  0  0  0  0  0  0  0  0  0  0
   10.5884   -3.0725   16.7902 O   0  0  0  0  0  0  0  0  0  0  0  0
   10.4323   -5.3494   20.3516 C   0  0  0  0  0  0  0  0  0  0  0  0
    7.1156   -7.5454   16.8218 C   0  0  0  0  0  0  0  0  0  0  0  0
   10.3885   -4.4388   19.2773 C   0  0  0  0  0  0  0  0  0  0  0  0
    4.5160   -9.3822   15.0841 C   0  0  0  0  0  0  0  0  0  0  0  0
  1  3  4  0
  1 24  4  0
  2  6  4  0
  2 15  4  0
  3  5  4  0
  3  6  4  0
  4 21  4  0
  4 29  4  0
  5 15  4  0
  5 28  1  0
  6 16  4  0
  7 18  4  0
  7 26  4  0
  8 18  1  0
  8 19  4  0
  8 22  4  0
  9 12  4  0
  9 19  4  0
 10 12  4  0
 10 22  4  0
 11 20  4  0
 11 21  4  0
 12 23  1  0
 13 20  4  0
 13 29  4  0
 14 17  4  0
 14 28  4  0
 15 25  2  0
 16 27  4  0
 17 18  4  0
 20 27  1  0
 24 27  4  0
 26 28  4  0
M  END
$$$$

 Created by Python create_sdf_string function

 29 33  0  0  0  0  0  0  0  0999 V2000
    8.8270   -7.0288   18.4251 C   0  0  0  0  0  0  0  0  0  0  0  0
    9.1576   -4.6236   15.8860 O   0  0  0  0  0  0  0  0  0  0  0  0
    9.1509   -5.9108   17.7177 C   0  0  0  0  0  0  0  0  0  0  0  0
    3.6373   -9.5349   16.0582 N   0  0  0  0  0  0  0  0  0  0  0  0
    9.9275   -4.8001   18.0438 N   0  0  0  0  0  0  0  0  0  0  0  0
    8.5908   -5.7425   16.4412 C   0  0  0  0  0  0  0  0  0  0  0  0
   10.5993   -4.8981   21.6068 C   0  0  0  0  0  0  0  0  0  0  0  0
   10.4258   -3.0106   23.0998 C   0  0  0  0  0  0  0  0  0  0  0  0
   10.2148   -3.4364   25.4200 C   0  0  0  0  0  0  0  0  0  0  0  0
    9.7853   -1.1840   24.4927 C   0  0  0  0  0  0  0  0  0  0  0  0
    5.0276   -8.5227   17.5352 C   0  0  0  0  0  0  0  0  0  0  0  0
    9.8187   -2.0895   25.5800 C   0  0  0  0  0  0  0  0  0  0  0  0
    5.6473   -8.7216   15.3158 C   0  0  0  0  0  0  0  0  0  0  0  0
   10.7581   -3.1233   19.4720 N   0  0  0  0  0  0  0  0  0  0  0  0
    9.9571   -4.0573   16.8866 C   0  0  0  0  0  0  0  0  0  0  0  0
    7.6213   -6.5618   16.0087 C   0  0  0  0  0  0  0  0  0  0  0  0
   10.8583   -2.6527   20.7222 C   0  0  0  0  0  0  0  0  0  0  0  0
   10.6412   -3.5089   21.7936 C   0  0  0  0  0  0  0  0  0  0  0  0
   10.4972   -3.8968   24.1589 C   0  0  0  0  0  0  0  0  0  0  0  0
    5.9260   -8.2736   16.5517 C   0  0  0  0  0  0  0  0  0  0  0  0
    3.8816   -9.1166   17.2493 C   0  0  0  0  0  0  0  0  0  0  0  0
   10.1297   -1.6575   23.2324 C   0  0  0  0  0  0  0  0  0  0  0  0
    9.4684   -1.6929   26.7263 F   0  0  0  0  0  0  0  0  0  0  0  0
    7.7963   -7.7906   17.9837 C   0  0  0  0  0  0  0  0  0  0  0  0
   10.5884   -3.0725   16.7902 O   0  0  0  0  0  0  0  0  0  0  0  0
   10.4323   -5.3494   20.3516 C   0  0  0  0  0  0  0  0  0  0  0  0
    7.1156   -7.5454   16.8218 C   0  0  0  0  0  0  0  0  0  0  0  0
   10.3885   -4.4388   19.2773 C   0  0  0  0  0  0  0  0  0  0  0  0
    4.5160   -9.3822   15.0841 C   0  0  0  0  0  0  0  0  0  0  0  0
  1  3  4  0
  1 24  4  0
  2  6  4  0
  2 15  4  0
  3  5  4  0
  3  6  4  0
  4 21  4  0
  4 29  4  0
  5 15  4  0
  5 28  1  0
  6 16  4  0
  7 18  4  0
  7 26  4  0
  8 18  1  0
  8 19  4  0
  8 22  4  0
  9 12  4  0
  9 19  4  0
 10 12  4  0
 10 22  4  0
 11 20  4  0
 11 21  4  0
 12 23  1  0
 13 20  4  0
 13 29  4  0
 14 17  4  0
 14 28  4  0
 15 25  2  0
 16 27  4  0
 17 18  4  0
 20 27  1  0
 24 27  4  0
 26 28  4  0
M  END
$$$$

 Created by Python create_sdf_string function

 29 33  0  0  0  0  0  0  0  0999 V2000
    8.8270   -7.0288   18.4251 C   0  0  0  0  0  0  0  0  0  0  0  0
    9.1576   -4.6236   15.8860 O   0  0  0  0  0  0  0  0  0  0  0  0
    9.1509   -5.9108   17.7177 C   0  0  0  0  0  0  0  0  0  0  0  0
    3.6373   -9.5349   16.0582 N   0  0  0  0  0  0  0  0  0  0  0  0
    9.9275   -4.8001   18.0438 N   0  0  0  0  0  0  0  0  0  0  0  0
    8.5908   -5.7425   16.4412 C   0  0  0  0  0  0  0  0  0  0  0  0
   10.5993   -4.8981   21.6068 C   0  0  0  0  0  0  0  0  0  0  0  0
   10.4258   -3.0106   23.0998 C   0  0  0  0  0  0  0  0  0  0  0  0
   10.2148   -3.4364   25.4200 C   0  0  0  0  0  0  0  0  0  0  0  0
    9.7853   -1.1840   24.4927 C   0  0  0  0  0  0  0  0  0  0  0  0
    5.0276   -8.5227   17.5352 C   0  0  0  0  0  0  0  0  0  0  0  0
    9.8187   -2.0895   25.5800 C   0  0  0  0  0  0  0  0  0  0  0  0
    5.6473   -8.7216   15.3158 C   0  0  0  0  0  0  0  0  0  0  0  0
   10.7581   -3.1233   19.4720 N   0  0  0  0  0  0  0  0  0  0  0  0
    9.9571   -4.0573   16.8866 C   0  0  0  0  0  0  0  0  0  0  0  0
    7.6213   -6.5618   16.0087 C   0  0  0  0  0  0  0  0  0  0  0  0
   10.8583   -2.6527   20.7222 C   0  0  0  0  0  0  0  0  0  0  0  0
   10.6412   -3.5089   21.7936 C   0  0  0  0  0  0  0  0  0  0  0  0
   10.4972   -3.8968   24.1589 C   0  0  0  0  0  0  0  0  0  0  0  0
    5.9260   -8.2736   16.5517 C   0  0  0  0  0  0  0  0  0  0  0  0
    3.8816   -9.1166   17.2493 C   0  0  0  0  0  0  0  0  0  0  0  0
   10.1297   -1.6575   23.2324 C   0  0  0  0  0  0  0  0  0  0  0  0
    9.4684   -1.6929   26.7263 F   0  0  0  0  0  0  0  0  0  0  0  0
    7.7963   -7.7906   17.9837 C   0  0  0  0  0  0  0  0  0  0  0  0
   10.5884   -3.0725   16.7902 O   0  0  0  0  0  0  0  0  0  0  0  0
   10.4323   -5.3494   20.3516 C   0  0  0  0  0  0  0  0  0  0  0  0
    7.1156   -7.5454   16.8218 C   0  0  0  0  0  0  0  0  0  0  0  0
   10.3885   -4.4388   19.2773 C   0  0  0  0  0  0  0  0  0  0  0  0
    4.5160   -9.3822   15.0841 C   0  0  0  0  0  0  0  0  0  0  0  0
  1  3  4  0
  1 24  4  0
  2  6  4  0
  2 15  4  0
  3  5  4  0
  3  6  4  0
  4 21  4  0
  4 29  4  0
  5 15  4  0
  5 28  1  0
  6 16  4  0
  7 18  4  0
  7 26  4  0
  8 18  1  0
  8 19  4  0
  8 22  4  0
  9 12  4  0
  9 19  4  0
 10 12  4  0
 10 22  4  0
 11 20  4  0
 11 21  4  0
 12 23  1  0
 13 20  4  0
 13 29  4  0
 14 17  4  0
 14 28  4  0
 15 25  2  0
 16 27  4  0
 17 18  4  0
 20 27  1  0
 24 27  4  0
 26 28  4  0
M  END
$$$$

 Created by Python create_sdf_string function

 29 33  0  0  0  0  0  0  0  0999 V2000
    8.8270   -7.0288   18.4251 C   0  0  0  0  0  0  0  0  0  0  0  0
    9.1576   -4.6236   15.8860 O   0  0  0  0  0  0  0  0  0  0  0  0
    9.1509   -5.9108   17.7177 C   0  0  0  0  0  0  0  0  0  0  0  0
    3.6373   -9.5349   16.0582 N   0  0  0  0  0  0  0  0  0  0  0  0
    9.9275   -4.8001   18.0438 N   0  0  0  0  0  0  0  0  0  0  0  0
    8.5908   -5.7425   16.4412 C   0  0  0  0  0  0  0  0  0  0  0  0
   10.5993   -4.8981   21.6068 C   0  0  0  0  0  0  0  0  0  0  0  0
   10.4258   -3.0106   23.0998 C   0  0  0  0  0  0  0  0  0  0  0  0
   10.2148   -3.4364   25.4200 C   0  0  0  0  0  0  0  0  0  0  0  0
    9.7853   -1.1840   24.4927 C   0  0  0  0  0  0  0  0  0  0  0  0
    5.0276   -8.5227   17.5352 C   0  0  0  0  0  0  0  0  0  0  0  0
    9.8187   -2.0895   25.5800 C   0  0  0  0  0  0  0  0  0  0  0  0
    5.6473   -8.7216   15.3158 C   0  0  0  0  0  0  0  0  0  0  0  0
   10.7581   -3.1233   19.4720 N   0  0  0  0  0  0  0  0  0  0  0  0
    9.9571   -4.0573   16.8866 C   0  0  0  0  0  0  0  0  0  0  0  0
    7.6213   -6.5618   16.0087 C   0  0  0  0  0  0  0  0  0  0  0  0
   10.8583   -2.6527   20.7222 C   0  0  0  0  0  0  0  0  0  0  0  0
   10.6412   -3.5089   21.7936 C   0  0  0  0  0  0  0  0  0  0  0  0
   10.4972   -3.8968   24.1589 C   0  0  0  0  0  0  0  0  0  0  0  0
    5.9260   -8.2736   16.5517 C   0  0  0  0  0  0  0  0  0  0  0  0
    3.8816   -9.1166   17.2493 C   0  0  0  0  0  0  0  0  0  0  0  0
   10.1297   -1.6575   23.2324 C   0  0  0  0  0  0  0  0  0  0  0  0
    9.4684   -1.6929   26.7263 F   0  0  0  0  0  0  0  0  0  0  0  0
    7.7963   -7.7906   17.9837 C   0  0  0  0  0  0  0  0  0  0  0  0
   10.5884   -3.0725   16.7902 O   0  0  0  0  0  0  0  0  0  0  0  0
   10.4323   -5.3494   20.3516 C   0  0  0  0  0  0  0  0  0  0  0  0
    7.1156   -7.5454   16.8218 C   0  0  0  0  0  0  0  0  0  0  0  0
   10.3885   -4.4388   19.2773 C   0  0  0  0  0  0  0  0  0  0  0  0
    4.5160   -9.3822   15.0841 C   0  0  0  0  0  0  0  0  0  0  0  0
  1  3  4  0
  1 24  4  0
  2  6  4  0
  2 15  4  0
  3  5  4  0
  3  6  4  0
  4 21  4  0
  4 29  4  0
  5 15  4  0
  5 28  1  0
  6 16  4  0
  7 18  4  0
  7 26  4  0
  8 18  1  0
  8 19  4  0
  8 22  4  0
  9 12  4  0
  9 19  4  0
 10 12  4  0
 10 22  4  0
 11 20  4  0
 11 21  4  0
 12 23  1  0
 13 20  4  0
 13 29  4  0
 14 17  4  0
 14 28  4  0
 15 25  2  0
 16 27  4  0
 17 18  4  0
 20 27  1  0
 24 27  4  0
 26 28  4  0
M  END
$$$$

 Created by Python create_sdf_string function

 29 33  0  0  0  0  0  0  0  0999 V2000
    8.8270   -7.0288   18.4251 C   0  0  0  0  0  0  0  0  0  0  0  0
    9.1576   -4.6236   15.8860 O   0  0  0  0  0  0  0  0  0  0  0  0
    9.1509   -5.9108   17.7177 C   0  0  0  0  0  0  0  0  0  0  0  0
    3.6373   -9.5349   16.0582 N   0  0  0  0  0  0  0  0  0  0  0  0
    9.9275   -4.8001   18.0438 N   0  0  0  0  0  0  0  0  0  0  0  0
    8.5908   -5.7425   16.4412 C   0  0  0  0  0  0  0  0  0  0  0  0
   10.5993   -4.8981   21.6068 C   0  0  0  0  0  0  0  0  0  0  0  0
   10.4258   -3.0106   23.0998 C   0  0  0  0  0  0  0  0  0  0  0  0
   10.2148   -3.4364   25.4200 C   0  0  0  0  0  0  0  0  0  0  0  0
    9.7853   -1.1840   24.4927 C   0  0  0  0  0  0  0  0  0  0  0  0
    5.0276   -8.5227   17.5352 C   0  0  0  0  0  0  0  0  0  0  0  0
    9.8187   -2.0895   25.5800 C   0  0  0  0  0  0  0  0  0  0  0  0
    5.6473   -8.7216   15.3158 C   0  0  0  0  0  0  0  0  0  0  0  0
   10.7581   -3.1233   19.4720 N   0  0  0  0  0  0  0  0  0  0  0  0
    9.9571   -4.0573   16.8866 C   0  0  0  0  0  0  0  0  0  0  0  0
    7.6213   -6.5618   16.0087 C   0  0  0  0  0  0  0  0  0  0  0  0
   10.8583   -2.6527   20.7222 C   0  0  0  0  0  0  0  0  0  0  0  0
   10.6412   -3.5089   21.7936 C   0  0  0  0  0  0  0  0  0  0  0  0
   10.4972   -3.8968   24.1589 C   0  0  0  0  0  0  0  0  0  0  0  0
    5.9260   -8.2736   16.5517 C   0  0  0  0  0  0  0  0  0  0  0  0
    3.8816   -9.1166   17.2493 C   0  0  0  0  0  0  0  0  0  0  0  0
   10.1297   -1.6575   23.2324 C   0  0  0  0  0  0  0  0  0  0  0  0
    9.4684   -1.6929   26.7263 F   0  0  0  0  0  0  0  0  0  0  0  0
    7.7963   -7.7906   17.9837 C   0  0  0  0  0  0  0  0  0  0  0  0
   10.5884   -3.0725   16.7902 O   0  0  0  0  0  0  0  0  0  0  0  0
   10.4323   -5.3494   20.3516 C   0  0  0  0  0  0  0  0  0  0  0  0
    7.1156   -7.5454   16.8218 C   0  0  0  0  0  0  0  0  0  0  0  0
   10.3885   -4.4388   19.2773 C   0  0  0  0  0  0  0  0  0  0  0  0
    4.5160   -9.3822   15.0841 C   0  0  0  0  0  0  0  0  0  0  0  0
  1  3  4  0
  1 24  4  0
  2  6  4  0
  2 15  4  0
  3  5  4  0
  3  6  4  0
  4 21  4  0
  4 29  4  0
  5 15  4  0
  5 28  1  0
  6 16  4  0
  7 18  4  0
  7 26  4  0
  8 18  1  0
  8 19  4  0
  8 22  4  0
  9 12  4  0
  9 19  4  0
 10 12  4  0
 10 22  4  0
 11 20  4  0
 11 21  4  0
 12 23  1  0
 13 20  4  0
 13 29  4  0
 14 17  4  0
 14 28  4  0
 15 25  2  0
 16 27  4  0
 17 18  4  0
 20 27  1  0
 24 27  4  0
 26 28  4  0
M  END
$$$$

 Created by Python create_sdf_string function

 29 33  0  0  0  0  0  0  0  0999 V2000
    8.8270   -7.0288   18.4251 C   0  0  0  0  0  0  0  0  0  0  0  0
    9.1576   -4.6236   15.8860 O   0  0  0  0  0  0  0  0  0  0  0  0
    9.1509   -5.9108   17.7177 C   0  0  0  0  0  0  0  0  0  0  0  0
    3.6373   -9.5349   16.0582 N   0  0  0  0  0  0  0  0  0  0  0  0
    9.9275   -4.8001   18.0438 N   0  0  0  0  0  0  0  0  0  0  0  0
    8.5908   -5.7425   16.4412 C   0  0  0  0  0  0  0  0  0  0  0  0
   10.5993   -4.8981   21.6068 C   0  0  0  0  0  0  0  0  0  0  0  0
   10.4258   -3.0106   23.0998 C   0  0  0  0  0  0  0  0  0  0  0  0
   10.2148   -3.4364   25.4200 C   0  0  0  0  0  0  0  0  0  0  0  0
    9.7853   -1.1840   24.4927 C   0  0  0  0  0  0  0  0  0  0  0  0
    5.0276   -8.5227   17.5352 C   0  0  0  0  0  0  0  0  0  0  0  0
    9.8187   -2.0895   25.5800 C   0  0  0  0  0  0  0  0  0  0  0  0
    5.6473   -8.7216   15.3158 C   0  0  0  0  0  0  0  0  0  0  0  0
   10.7581   -3.1233   19.4720 N   0  0  0  0  0  0  0  0  0  0  0  0
    9.9571   -4.0573   16.8866 C   0  0  0  0  0  0  0  0  0  0  0  0
    7.6213   -6.5618   16.0087 C   0  0  0  0  0  0  0  0  0  0  0  0
   10.8583   -2.6527   20.7222 C   0  0  0  0  0  0  0  0  0  0  0  0
   10.6412   -3.5089   21.7936 C   0  0  0  0  0  0  0  0  0  0  0  0
   10.4972   -3.8968   24.1589 C   0  0  0  0  0  0  0  0  0  0  0  0
    5.9260   -8.2736   16.5517 C   0  0  0  0  0  0  0  0  0  0  0  0
    3.8816   -9.1166   17.2493 C   0  0  0  0  0  0  0  0  0  0  0  0
   10.1297   -1.6575   23.2324 C   0  0  0  0  0  0  0  0  0  0  0  0
    9.4684   -1.6929   26.7263 F   0  0  0  0  0  0  0  0  0  0  0  0
    7.7963   -7.7906   17.9837 C   0  0  0  0  0  0  0  0  0  0  0  0
   10.5884   -3.0725   16.7902 O   0  0  0  0  0  0  0  0  0  0  0  0
   10.4323   -5.3494   20.3516 C   0  0  0  0  0  0  0  0  0  0  0  0
    7.1156   -7.5454   16.8218 C   0  0  0  0  0  0  0  0  0  0  0  0
   10.3885   -4.4388   19.2773 C   0  0  0  0  0  0  0  0  0  0  0  0
    4.5160   -9.3822   15.0841 C   0  0  0  0  0  0  0  0  0  0  0  0
  1  3  4  0
  1 24  4  0
  2  6  4  0
  2 15  4  0
  3  5  4  0
  3  6  4  0
  4 21  4  0
  4 29  4  0
  5 15  4  0
  5 28  1  0
  6 16  4  0
  7 18  4  0
  7 26  4  0
  8 18  1  0
  8 19  4  0
  8 22  4  0
  9 12  4  0
  9 19  4  0
 10 12  4  0
 10 22  4  0
 11 20  4  0
 11 21  4  0
 12 23  1  0
 13 20  4  0
 13 29  4  0
 14 17  4  0
 14 28  4  0
 15 25  2  0
 16 27  4  0
 17 18  4  0
 20 27  1  0
 24 27  4  0
 26 28  4  0
M  END
$$$$

 Created by Python create_sdf_string function

 29 33  0  0  0  0  0  0  0  0999 V2000
    8.8270   -7.0288   18.4251 C   0  0  0  0  0  0  0  0  0  0  0  0
    9.1576   -4.6236   15.8860 O   0  0  0  0  0  0  0  0  0  0  0  0
    9.1509   -5.9108   17.7177 C   0  0  0  0  0  0  0  0  0  0  0  0
    3.6373   -9.5349   16.0582 N   0  0  0  0  0  0  0  0  0  0  0  0
    9.9275   -4.8001   18.0438 N   0  0  0  0  0  0  0  0  0  0  0  0
    8.5908   -5.7425   16.4412 C   0  0  0  0  0  0  0  0  0  0  0  0
   10.5993   -4.8981   21.6068 C   0  0  0  0  0  0  0  0  0  0  0  0
   10.4258   -3.0106   23.0998 C   0  0  0  0  0  0  0  0  0  0  0  0
   10.2148   -3.4364   25.4200 C   0  0  0  0  0  0  0  0  0  0  0  0
    9.7853   -1.1840   24.4927 C   0  0  0  0  0  0  0  0  0  0  0  0
    5.0276   -8.5227   17.5352 C   0  0  0  0  0  0  0  0  0  0  0  0
    9.8187   -2.0895   25.5800 C   0  0  0  0  0  0  0  0  0  0  0  0
    5.6473   -8.7216   15.3158 C   0  0  0  0  0  0  0  0  0  0  0  0
   10.7581   -3.1233   19.4720 N   0  0  0  0  0  0  0  0  0  0  0  0
    9.9571   -4.0573   16.8866 C   0  0  0  0  0  0  0  0  0  0  0  0
    7.6213   -6.5618   16.0087 C   0  0  0  0  0  0  0  0  0  0  0  0
   10.8583   -2.6527   20.7222 C   0  0  0  0  0  0  0  0  0  0  0  0
   10.6412   -3.5089   21.7936 C   0  0  0  0  0  0  0  0  0  0  0  0
   10.4972   -3.8968   24.1589 C   0  0  0  0  0  0  0  0  0  0  0  0
    5.9260   -8.2736   16.5517 C   0  0  0  0  0  0  0  0  0  0  0  0
    3.8816   -9.1166   17.2493 C   0  0  0  0  0  0  0  0  0  0  0  0
   10.1297   -1.6575   23.2324 C   0  0  0  0  0  0  0  0  0  0  0  0
    9.4684   -1.6929   26.7263 F   0  0  0  0  0  0  0  0  0  0  0  0
    7.7963   -7.7906   17.9837 C   0  0  0  0  0  0  0  0  0  0  0  0
   10.5884   -3.0725   16.7902 O   0  0  0  0  0  0  0  0  0  0  0  0
   10.4323   -5.3494   20.3516 C   0  0  0  0  0  0  0  0  0  0  0  0
    7.1156   -7.5454   16.8218 C   0  0  0  0  0  0  0  0  0  0  0  0
   10.3885   -4.4388   19.2773 C   0  0  0  0  0  0  0  0  0  0  0  0
    4.5160   -9.3822   15.0841 C   0  0  0  0  0  0  0  0  0  0  0  0
  1  3  4  0
  1 24  4  0
  2  6  4  0
  2 15  4  0
  3  5  4  0
  3  6  4  0
  4 21  4  0
  4 29  4  0
  5 15  4  0
  5 28  1  0
  6 16  4  0
  7 18  4  0
  7 26  4  0
  8 18  1  0
  8 19  4  0
  8 22  4  0
  9 12  4  0
  9 19  4  0
 10 12  4  0
 10 22  4  0
 11 20  4  0
 11 21  4  0
 12 23  1  0
 13 20  4  0
 13 29  4  0
 14 17  4  0
 14 28  4  0
 15 25  2  0
 16 27  4  0
 17 18  4  0
 20 27  1  0
 24 27  4  0
 26 28  4  0
M  END
$$$$

 Created by Python create_sdf_string function

 29 33  0  0  0  0  0  0  0  0999 V2000
    8.8270   -7.0288   18.4251 C   0  0  0  0  0  0  0  0  0  0  0  0
    9.1576   -4.6236   15.8860 O   0  0  0  0  0  0  0  0  0  0  0  0
    9.1509   -5.9108   17.7177 C   0  0  0  0  0  0  0  0  0  0  0  0
    3.6373   -9.5349   16.0582 N   0  0  0  0  0  0  0  0  0  0  0  0
    9.9275   -4.8001   18.0438 N   0  0  0  0  0  0  0  0  0  0  0  0
    8.5908   -5.7425   16.4412 C   0  0  0  0  0  0  0  0  0  0  0  0
   10.5993   -4.8981   21.6068 C   0  0  0  0  0  0  0  0  0  0  0  0
   10.4258   -3.0106   23.0998 C   0  0  0  0  0  0  0  0  0  0  0  0
   10.2148   -3.4364   25.4200 C   0  0  0  0  0  0  0  0  0  0  0  0
    9.7853   -1.1840   24.4927 C   0  0  0  0  0  0  0  0  0  0  0  0
    5.0276   -8.5227   17.5352 C   0  0  0  0  0  0  0  0  0  0  0  0
    9.8187   -2.0895   25.5800 C   0  0  0  0  0  0  0  0  0  0  0  0
    5.6473   -8.7216   15.3158 C   0  0  0  0  0  0  0  0  0  0  0  0
   10.7581   -3.1233   19.4720 N   0  0  0  0  0  0  0  0  0  0  0  0
    9.9571   -4.0573   16.8866 C   0  0  0  0  0  0  0  0  0  0  0  0
    7.6213   -6.5618   16.0087 C   0  0  0  0  0  0  0  0  0  0  0  0
   10.8583   -2.6527   20.7222 C   0  0  0  0  0  0  0  0  0  0  0  0
   10.6412   -3.5089   21.7936 C   0  0  0  0  0  0  0  0  0  0  0  0
   10.4972   -3.8968   24.1589 C   0  0  0  0  0  0  0  0  0  0  0  0
    5.9260   -8.2736   16.5517 C   0  0  0  0  0  0  0  0  0  0  0  0
    3.8816   -9.1166   17.2493 C   0  0  0  0  0  0  0  0  0  0  0  0
   10.1297   -1.6575   23.2324 C   0  0  0  0  0  0  0  0  0  0  0  0
    9.4684   -1.6929   26.7263 F   0  0  0  0  0  0  0  0  0  0  0  0
    7.7963   -7.7906   17.9837 C   0  0  0  0  0  0  0  0  0  0  0  0
   10.5884   -3.0725   16.7902 O   0  0  0  0  0  0  0  0  0  0  0  0
   10.4323   -5.3494   20.3516 C   0  0  0  0  0  0  0  0  0  0  0  0
    7.1156   -7.5454   16.8218 C   0  0  0  0  0  0  0  0  0  0  0  0
   10.3885   -4.4388   19.2773 C   0  0  0  0  0  0  0  0  0  0  0  0
    4.5160   -9.3822   15.0841 C   0  0  0  0  0  0  0  0  0  0  0  0
  1  3  4  0
  1 24  4  0
  2  6  4  0
  2 15  4  0
  3  5  4  0
  3  6  4  0
  4 21  4  0
  4 29  4  0
  5 15  4  0
  5 28  1  0
  6 16  4  0
  7 18  4  0
  7 26  4  0
  8 18  1  0
  8 19  4  0
  8 22  4  0
  9 12  4  0
  9 19  4  0
 10 12  4  0
 10 22  4  0
 11 20  4  0
 11 21  4  0
 12 23  1  0
 13 20  4  0
 13 29  4  0
 14 17  4  0
 14 28  4  0
 15 25  2  0
 16 27  4  0
 17 18  4  0
 20 27  1  0
 24 27  4  0
 26 28  4  0
M  END
$$$$

 Created by Python create_sdf_string function

 29 33  0  0  0  0  0  0  0  0999 V2000
    8.8270   -7.0288   18.4251 C   0  0  0  0  0  0  0  0  0  0  0  0
    9.1576   -4.6236   15.8860 O   0  0  0  0  0  0  0  0  0  0  0  0
    9.1509   -5.9108   17.7177 C   0  0  0  0  0  0  0  0  0  0  0  0
    3.6373   -9.5349   16.0582 N   0  0  0  0  0  0  0  0  0  0  0  0
    9.9275   -4.8001   18.0438 N   0  0  0  0  0  0  0  0  0  0  0  0
    8.5908   -5.7425   16.4412 C   0  0  0  0  0  0  0  0  0  0  0  0
   10.5993   -4.8981   21.6068 C   0  0  0  0  0  0  0  0  0  0  0  0
   10.4258   -3.0106   23.0998 C   0  0  0  0  0  0  0  0  0  0  0  0
   10.2148   -3.4364   25.4200 C   0  0  0  0  0  0  0  0  0  0  0  0
    9.7853   -1.1840   24.4927 C   0  0  0  0  0  0  0  0  0  0  0  0
    5.0276   -8.5227   17.5352 C   0  0  0  0  0  0  0  0  0  0  0  0
    9.8187   -2.0895   25.5800 C   0  0  0  0  0  0  0  0  0  0  0  0
    5.6473   -8.7216   15.3158 C   0  0  0  0  0  0  0  0  0  0  0  0
   10.7581   -3.1233   19.4720 N   0  0  0  0  0  0  0  0  0  0  0  0
    9.9571   -4.0573   16.8866 C   0  0  0  0  0  0  0  0  0  0  0  0
    7.6213   -6.5618   16.0087 C   0  0  0  0  0  0  0  0  0  0  0  0
   10.8583   -2.6527   20.7222 C   0  0  0  0  0  0  0  0  0  0  0  0
   10.6412   -3.5089   21.7936 C   0  0  0  0  0  0  0  0  0  0  0  0
   10.4972   -3.8968   24.1589 C   0  0  0  0  0  0  0  0  0  0  0  0
    5.9260   -8.2736   16.5517 C   0  0  0  0  0  0  0  0  0  0  0  0
    3.8816   -9.1166   17.2493 C   0  0  0  0  0  0  0  0  0  0  0  0
   10.1297   -1.6575   23.2324 C   0  0  0  0  0  0  0  0  0  0  0  0
    9.4684   -1.6929   26.7263 F   0  0  0  0  0  0  0  0  0  0  0  0
    7.7963   -7.7906   17.9837 C   0  0  0  0  0  0  0  0  0  0  0  0
   10.5884   -3.0725   16.7902 O   0  0  0  0  0  0  0  0  0  0  0  0
   10.4323   -5.3494   20.3516 C   0  0  0  0  0  0  0  0  0  0  0  0
    7.1156   -7.5454   16.8218 C   0  0  0  0  0  0  0  0  0  0  0  0
   10.3885   -4.4388   19.2773 C   0  0  0  0  0  0  0  0  0  0  0  0
    4.5160   -9.3822   15.0841 C   0  0  0  0  0  0  0  0  0  0  0  0
  1  3  4  0
  1 24  4  0
  2  6  4  0
  2 15  4  0
  3  5  4  0
  3  6  4  0
  4 21  4  0
  4 29  4  0
  5 15  4  0
  5 28  1  0
  6 16  4  0
  7 18  4  0
  7 26  4  0
  8 18  1  0
  8 19  4  0
  8 22  4  0
  9 12  4  0
  9 19  4  0
 10 12  4  0
 10 22  4  0
 11 20  4  0
 11 21  4  0
 12 23  1  0
 13 20  4  0
 13 29  4  0
 14 17  4  0
 14 28  4  0
 15 25  2  0
 16 27  4  0
 17 18  4  0
 20 27  1  0
 24 27  4  0
 26 28  4  0
M  END
$$$$

 Created by Python create_sdf_string function

 29 33  0  0  0  0  0  0  0  0999 V2000
    8.8270   -7.0288   18.4251 C   0  0  0  0  0  0  0  0  0  0  0  0
    9.1576   -4.6236   15.8860 O   0  0  0  0  0  0  0  0  0  0  0  0
    9.1509   -5.9108   17.7177 C   0  0  0  0  0  0  0  0  0  0  0  0
    3.6373   -9.5349   16.0582 N   0  0  0  0  0  0  0  0  0  0  0  0
    9.9275   -4.8001   18.0438 N   0  0  0  0  0  0  0  0  0  0  0  0
    8.5908   -5.7425   16.4412 C   0  0  0  0  0  0  0  0  0  0  0  0
   10.5993   -4.8981   21.6068 C   0  0  0  0  0  0  0  0  0  0  0  0
   10.4258   -3.0106   23.0998 C   0  0  0  0  0  0  0  0  0  0  0  0
   10.2148   -3.4364   25.4200 C   0  0  0  0  0  0  0  0  0  0  0  0
    9.7853   -1.1840   24.4927 C   0  0  0  0  0  0  0  0  0  0  0  0
    5.0276   -8.5227   17.5352 C   0  0  0  0  0  0  0  0  0  0  0  0
    9.8187   -2.0895   25.5800 C   0  0  0  0  0  0  0  0  0  0  0  0
    5.6473   -8.7216   15.3158 C   0  0  0  0  0  0  0  0  0  0  0  0
   10.7581   -3.1233   19.4720 N   0  0  0  0  0  0  0  0  0  0  0  0
    9.9571   -4.0573   16.8866 C   0  0  0  0  0  0  0  0  0  0  0  0
    7.6213   -6.5618   16.0087 C   0  0  0  0  0  0  0  0  0  0  0  0
   10.8583   -2.6527   20.7222 C   0  0  0  0  0  0  0  0  0  0  0  0
   10.6412   -3.5089   21.7936 C   0  0  0  0  0  0  0  0  0  0  0  0
   10.4972   -3.8968   24.1589 C   0  0  0  0  0  0  0  0  0  0  0  0
    5.9260   -8.2736   16.5517 C   0  0  0  0  0  0  0  0  0  0  0  0
    3.8816   -9.1166   17.2493 C   0  0  0  0  0  0  0  0  0  0  0  0
   10.1297   -1.6575   23.2324 C   0  0  0  0  0  0  0  0  0  0  0  0
    9.4684   -1.6929   26.7263 F   0  0  0  0  0  0  0  0  0  0  0  0
    7.7963   -7.7906   17.9837 C   0  0  0  0  0  0  0  0  0  0  0  0
   10.5884   -3.0725   16.7902 O   0  0  0  0  0  0  0  0  0  0  0  0
   10.4323   -5.3494   20.3516 C   0  0  0  0  0  0  0  0  0  0  0  0
    7.1156   -7.5454   16.8218 C   0  0  0  0  0  0  0  0  0  0  0  0
   10.3885   -4.4388   19.2773 C   0  0  0  0  0  0  0  0  0  0  0  0
    4.5160   -9.3822   15.0841 C   0  0  0  0  0  0  0  0  0  0  0  0
  1  3  4  0
  1 24  4  0
  2  6  4  0
  2 15  4  0
  3  5  4  0
  3  6  4  0
  4 21  4  0
  4 29  4  0
  5 15  4  0
  5 28  1  0
  6 16  4  0
  7 18  4  0
  7 26  4  0
  8 18  1  0
  8 19  4  0
  8 22  4  0
  9 12  4  0
  9 19  4  0
 10 12  4  0
 10 22  4  0
 11 20  4  0
 11 21  4  0
 12 23  1  0
 13 20  4  0
 13 29  4  0
 14 17  4  0
 14 28  4  0
 15 25  2  0
 16 27  4  0
 17 18  4  0
 20 27  1  0
 24 27  4  0
 26 28  4  0
M  END
$$$$

 Created by Python create_sdf_string function

 29 33  0  0  0  0  0  0  0  0999 V2000
    8.8270   -7.0288   18.4251 C   0  0  0  0  0  0  0  0  0  0  0  0
    9.1576   -4.6236   15.8860 O   0  0  0  0  0  0  0  0  0  0  0  0
    9.1509   -5.9108   17.7177 C   0  0  0  0  0  0  0  0  0  0  0  0
    3.6373   -9.5349   16.0582 N   0  0  0  0  0  0  0  0  0  0  0  0
    9.9275   -4.8001   18.0438 N   0  0  0  0  0  0  0  0  0  0  0  0
    8.5908   -5.7425   16.4412 C   0  0  0  0  0  0  0  0  0  0  0  0
   10.5993   -4.8981   21.6068 C   0  0  0  0  0  0  0  0  0  0  0  0
   10.4258   -3.0106   23.0998 C   0  0  0  0  0  0  0  0  0  0  0  0
   10.2148   -3.4364   25.4200 C   0  0  0  0  0  0  0  0  0  0  0  0
    9.7853   -1.1840   24.4927 C   0  0  0  0  0  0  0  0  0  0  0  0
    5.0276   -8.5227   17.5352 C   0  0  0  0  0  0  0  0  0  0  0  0
    9.8187   -2.0895   25.5800 C   0  0  0  0  0  0  0  0  0  0  0  0
    5.6473   -8.7216   15.3158 C   0  0  0  0  0  0  0  0  0  0  0  0
   10.7581   -3.1233   19.4720 N   0  0  0  0  0  0  0  0  0  0  0  0
    9.9571   -4.0573   16.8866 C   0  0  0  0  0  0  0  0  0  0  0  0
    7.6213   -6.5618   16.0087 C   0  0  0  0  0  0  0  0  0  0  0  0
   10.8583   -2.6527   20.7222 C   0  0  0  0  0  0  0  0  0  0  0  0
   10.6412   -3.5089   21.7936 C   0  0  0  0  0  0  0  0  0  0  0  0
   10.4972   -3.8968   24.1589 C   0  0  0  0  0  0  0  0  0  0  0  0
    5.9260   -8.2736   16.5517 C   0  0  0  0  0  0  0  0  0  0  0  0
    3.8816   -9.1166   17.2493 C   0  0  0  0  0  0  0  0  0  0  0  0
   10.1297   -1.6575   23.2324 C   0  0  0  0  0  0  0  0  0  0  0  0
    9.4684   -1.6929   26.7263 F   0  0  0  0  0  0  0  0  0  0  0  0
    7.7963   -7.7906   17.9837 C   0  0  0  0  0  0  0  0  0  0  0  0
   10.5884   -3.0725   16.7902 O   0  0  0  0  0  0  0  0  0  0  0  0
   10.4323   -5.3494   20.3516 C   0  0  0  0  0  0  0  0  0  0  0  0
    7.1156   -7.5454   16.8218 C   0  0  0  0  0  0  0  0  0  0  0  0
   10.3885   -4.4388   19.2773 C   0  0  0  0  0  0  0  0  0  0  0  0
    4.5160   -9.3822   15.0841 C   0  0  0  0  0  0  0  0  0  0  0  0
  1  3  4  0
  1 24  4  0
  2  6  4  0
  2 15  4  0
  3  5  4  0
  3  6  4  0
  4 21  4  0
  4 29  4  0
  5 15  4  0
  5 28  1  0
  6 16  4  0
  7 18  4  0
  7 26  4  0
  8 18  1  0
  8 19  4  0
  8 22  4  0
  9 12  4  0
  9 19  4  0
 10 12  4  0
 10 22  4  0
 11 20  4  0
 11 21  4  0
 12 23  1  0
 13 20  4  0
 13 29  4  0
 14 17  4  0
 14 28  4  0
 15 25  2  0
 16 27  4  0
 17 18  4  0
 20 27  1  0
 24 27  4  0
 26 28  4  0
M  END
$$$$

 Created by Python create_sdf_string function

 29 33  0  0  0  0  0  0  0  0999 V2000
    8.8270   -7.0288   18.4251 C   0  0  0  0  0  0  0  0  0  0  0  0
    9.1576   -4.6236   15.8860 O   0  0  0  0  0  0  0  0  0  0  0  0
    9.1509   -5.9108   17.7177 C   0  0  0  0  0  0  0  0  0  0  0  0
    3.6373   -9.5349   16.0582 N   0  0  0  0  0  0  0  0  0  0  0  0
    9.9275   -4.8001   18.0438 N   0  0  0  0  0  0  0  0  0  0  0  0
    8.5908   -5.7425   16.4412 C   0  0  0  0  0  0  0  0  0  0  0  0
   10.5993   -4.8981   21.6068 C   0  0  0  0  0  0  0  0  0  0  0  0
   10.4258   -3.0106   23.0998 C   0  0  0  0  0  0  0  0  0  0  0  0
   10.2148   -3.4364   25.4200 C   0  0  0  0  0  0  0  0  0  0  0  0
    9.7853   -1.1840   24.4927 C   0  0  0  0  0  0  0  0  0  0  0  0
    5.0276   -8.5227   17.5352 C   0  0  0  0  0  0  0  0  0  0  0  0
    9.8187   -2.0895   25.5800 C   0  0  0  0  0  0  0  0  0  0  0  0
    5.6473   -8.7216   15.3158 C   0  0  0  0  0  0  0  0  0  0  0  0
   10.7581   -3.1233   19.4720 N   0  0  0  0  0  0  0  0  0  0  0  0
    9.9571   -4.0573   16.8866 C   0  0  0  0  0  0  0  0  0  0  0  0
    7.6213   -6.5618   16.0087 C   0  0  0  0  0  0  0  0  0  0  0  0
   10.8583   -2.6527   20.7222 C   0  0  0  0  0  0  0  0  0  0  0  0
   10.6412   -3.5089   21.7936 C   0  0  0  0  0  0  0  0  0  0  0  0
   10.4972   -3.8968   24.1589 C   0  0  0  0  0  0  0  0  0  0  0  0
    5.9260   -8.2736   16.5517 C   0  0  0  0  0  0  0  0  0  0  0  0
    3.8816   -9.1166   17.2493 C   0  0  0  0  0  0  0  0  0  0  0  0
   10.1297   -1.6575   23.2324 C   0  0  0  0  0  0  0  0  0  0  0  0
    9.4684   -1.6929   26.7263 F   0  0  0  0  0  0  0  0  0  0  0  0
    7.7963   -7.7906   17.9837 C   0  0  0  0  0  0  0  0  0  0  0  0
   10.5884   -3.0725   16.7902 O   0  0  0  0  0  0  0  0  0  0  0  0
   10.4323   -5.3494   20.3516 C   0  0  0  0  0  0  0  0  0  0  0  0
    7.1156   -7.5454   16.8218 C   0  0  0  0  0  0  0  0  0  0  0  0
   10.3885   -4.4388   19.2773 C   0  0  0  0  0  0  0  0  0  0  0  0
    4.5160   -9.3822   15.0841 C   0  0  0  0  0  0  0  0  0  0  0  0
  1  3  4  0
  1 24  4  0
  2  6  4  0
  2 15  4  0
  3  5  4  0
  3  6  4  0
  4 21  4  0
  4 29  4  0
  5 15  4  0
  5 28  1  0
  6 16  4  0
  7 18  4  0
  7 26  4  0
  8 18  1  0
  8 19  4  0
  8 22  4  0
  9 12  4  0
  9 19  4  0
 10 12  4  0
 10 22  4  0
 11 20  4  0
 11 21  4  0
 12 23  1  0
 13 20  4  0
 13 29  4  0
 14 17  4  0
 14 28  4  0
 15 25  2  0
 16 27  4  0
 17 18  4  0
 20 27  1  0
 24 27  4  0
 26 28  4  0
M  END
$$$$

 Created by Python create_sdf_string function

 29 33  0  0  0  0  0  0  0  0999 V2000
    8.8270   -7.0288   18.4251 C   0  0  0  0  0  0  0  0  0  0  0  0
    9.1576   -4.6236   15.8860 O   0  0  0  0  0  0  0  0  0  0  0  0
    9.1509   -5.9108   17.7177 C   0  0  0  0  0  0  0  0  0  0  0  0
    3.6373   -9.5349   16.0582 N   0  0  0  0  0  0  0  0  0  0  0  0
    9.9275   -4.8001   18.0438 N   0  0  0  0  0  0  0  0  0  0  0  0
    8.5908   -5.7425   16.4412 C   0  0  0  0  0  0  0  0  0  0  0  0
   10.5993   -4.8981   21.6068 C   0  0  0  0  0  0  0  0  0  0  0  0
   10.4258   -3.0106   23.0998 C   0  0  0  0  0  0  0  0  0  0  0  0
   10.2148   -3.4364   25.4200 C   0  0  0  0  0  0  0  0  0  0  0  0
    9.7853   -1.1840   24.4927 C   0  0  0  0  0  0  0  0  0  0  0  0
    5.0276   -8.5227   17.5352 C   0  0  0  0  0  0  0  0  0  0  0  0
    9.8187   -2.0895   25.5800 C   0  0  0  0  0  0  0  0  0  0  0  0
    5.6473   -8.7216   15.3158 C   0  0  0  0  0  0  0  0  0  0  0  0
   10.7581   -3.1233   19.4720 N   0  0  0  0  0  0  0  0  0  0  0  0
    9.9571   -4.0573   16.8866 C   0  0  0  0  0  0  0  0  0  0  0  0
    7.6213   -6.5618   16.0087 C   0  0  0  0  0  0  0  0  0  0  0  0
   10.8583   -2.6527   20.7222 C   0  0  0  0  0  0  0  0  0  0  0  0
   10.6412   -3.5089   21.7936 C   0  0  0  0  0  0  0  0  0  0  0  0
   10.4972   -3.8968   24.1589 C   0  0  0  0  0  0  0  0  0  0  0  0
    5.9260   -8.2736   16.5517 C   0  0  0  0  0  0  0  0  0  0  0  0
    3.8816   -9.1166   17.2493 C   0  0  0  0  0  0  0  0  0  0  0  0
   10.1297   -1.6575   23.2324 C   0  0  0  0  0  0  0  0  0  0  0  0
    9.4684   -1.6929   26.7263 F   0  0  0  0  0  0  0  0  0  0  0  0
    7.7963   -7.7906   17.9837 C   0  0  0  0  0  0  0  0  0  0  0  0
   10.5884   -3.0725   16.7902 O   0  0  0  0  0  0  0  0  0  0  0  0
   10.4323   -5.3494   20.3516 C   0  0  0  0  0  0  0  0  0  0  0  0
    7.1156   -7.5454   16.8218 C   0  0  0  0  0  0  0  0  0  0  0  0
   10.3885   -4.4388   19.2773 C   0  0  0  0  0  0  0  0  0  0  0  0
    4.5160   -9.3822   15.0841 C   0  0  0  0  0  0  0  0  0  0  0  0
  1  3  4  0
  1 24  4  0
  2  6  4  0
  2 15  4  0
  3  5  4  0
  3  6  4  0
  4 21  4  0
  4 29  4  0
  5 15  4  0
  5 28  1  0
  6 16  4  0
  7 18  4  0
  7 26  4  0
  8 18  1  0
  8 19  4  0
  8 22  4  0
  9 12  4  0
  9 19  4  0
 10 12  4  0
 10 22  4  0
 11 20  4  0
 11 21  4  0
 12 23  1  0
 13 20  4  0
 13 29  4  0
 14 17  4  0
 14 28  4  0
 15 25  2  0
 16 27  4  0
 17 18  4  0
 20 27  1  0
 24 27  4  0
 26 28  4  0
M  END
$$$$

 Created by Python create_sdf_string function

 29 33  0  0  0  0  0  0  0  0999 V2000
    8.8270   -7.0288   18.4251 C   0  0  0  0  0  0  0  0  0  0  0  0
    9.1576   -4.6236   15.8860 O   0  0  0  0  0  0  0  0  0  0  0  0
    9.1509   -5.9108   17.7177 C   0  0  0  0  0  0  0  0  0  0  0  0
    3.6373   -9.5349   16.0582 N   0  0  0  0  0  0  0  0  0  0  0  0
    9.9275   -4.8001   18.0438 N   0  0  0  0  0  0  0  0  0  0  0  0
    8.5908   -5.7425   16.4412 C   0  0  0  0  0  0  0  0  0  0  0  0
   10.5993   -4.8981   21.6068 C   0  0  0  0  0  0  0  0  0  0  0  0
   10.4258   -3.0106   23.0998 C   0  0  0  0  0  0  0  0  0  0  0  0
   10.2148   -3.4364   25.4200 C   0  0  0  0  0  0  0  0  0  0  0  0
    9.7853   -1.1840   24.4927 C   0  0  0  0  0  0  0  0  0  0  0  0
    5.0276   -8.5227   17.5352 C   0  0  0  0  0  0  0  0  0  0  0  0
    9.8187   -2.0895   25.5800 C   0  0  0  0  0  0  0  0  0  0  0  0
    5.6473   -8.7216   15.3158 C   0  0  0  0  0  0  0  0  0  0  0  0
   10.7581   -3.1233   19.4720 N   0  0  0  0  0  0  0  0  0  0  0  0
    9.9571   -4.0573   16.8866 C   0  0  0  0  0  0  0  0  0  0  0  0
    7.6213   -6.5618   16.0087 C   0  0  0  0  0  0  0  0  0  0  0  0
   10.8583   -2.6527   20.7222 C   0  0  0  0  0  0  0  0  0  0  0  0
   10.6412   -3.5089   21.7936 C   0  0  0  0  0  0  0  0  0  0  0  0
   10.4972   -3.8968   24.1589 C   0  0  0  0  0  0  0  0  0  0  0  0
    5.9260   -8.2736   16.5517 C   0  0  0  0  0  0  0  0  0  0  0  0
    3.8816   -9.1166   17.2493 C   0  0  0  0  0  0  0  0  0  0  0  0
   10.1297   -1.6575   23.2324 C   0  0  0  0  0  0  0  0  0  0  0  0
    9.4684   -1.6929   26.7263 F   0  0  0  0  0  0  0  0  0  0  0  0
    7.7963   -7.7906   17.9837 C   0  0  0  0  0  0  0  0  0  0  0  0
   10.5884   -3.0725   16.7902 O   0  0  0  0  0  0  0  0  0  0  0  0
   10.4323   -5.3494   20.3516 C   0  0  0  0  0  0  0  0  0  0  0  0
    7.1156   -7.5454   16.8218 C   0  0  0  0  0  0  0  0  0  0  0  0
   10.3885   -4.4388   19.2773 C   0  0  0  0  0  0  0  0  0  0  0  0
    4.5160   -9.3822   15.0841 C   0  0  0  0  0  0  0  0  0  0  0  0
  1  3  4  0
  1 24  4  0
  2  6  4  0
  2 15  4  0
  3  5  4  0
  3  6  4  0
  4 21  4  0
  4 29  4  0
  5 15  4  0
  5 28  1  0
  6 16  4  0
  7 18  4  0
  7 26  4  0
  8 18  1  0
  8 19  4  0
  8 22  4  0
  9 12  4  0
  9 19  4  0
 10 12  4  0
 10 22  4  0
 11 20  4  0
 11 21  4  0
 12 23  1  0
 13 20  4  0
 13 29  4  0
 14 17  4  0
 14 28  4  0
 15 25  2  0
 16 27  4  0
 17 18  4  0
 20 27  1  0
 24 27  4  0
 26 28  4  0
M  END
$$$$

 Created by Python create_sdf_string function

 29 33  0  0  0  0  0  0  0  0999 V2000
    8.8270   -7.0288   18.4251 C   0  0  0  0  0  0  0  0  0  0  0  0
    9.1576   -4.6236   15.8860 O   0  0  0  0  0  0  0  0  0  0  0  0
    9.1509   -5.9108   17.7177 C   0  0  0  0  0  0  0  0  0  0  0  0
    3.6373   -9.5349   16.0582 N   0  0  0  0  0  0  0  0  0  0  0  0
    9.9275   -4.8001   18.0438 N   0  0  0  0  0  0  0  0  0  0  0  0
    8.5908   -5.7425   16.4412 C   0  0  0  0  0  0  0  0  0  0  0  0
   10.5993   -4.8981   21.6068 C   0  0  0  0  0  0  0  0  0  0  0  0
   10.4258   -3.0106   23.0998 C   0  0  0  0  0  0  0  0  0  0  0  0
   10.2148   -3.4364   25.4200 C   0  0  0  0  0  0  0  0  0  0  0  0
    9.7853   -1.1840   24.4927 C   0  0  0  0  0  0  0  0  0  0  0  0
    5.0276   -8.5227   17.5352 C   0  0  0  0  0  0  0  0  0  0  0  0
    9.8187   -2.0895   25.5800 C   0  0  0  0  0  0  0  0  0  0  0  0
    5.6473   -8.7216   15.3158 C   0  0  0  0  0  0  0  0  0  0  0  0
   10.7581   -3.1233   19.4720 N   0  0  0  0  0  0  0  0  0  0  0  0
    9.9571   -4.0573   16.8866 C   0  0  0  0  0  0  0  0  0  0  0  0
    7.6213   -6.5618   16.0087 C   0  0  0  0  0  0  0  0  0  0  0  0
   10.8583   -2.6527   20.7222 C   0  0  0  0  0  0  0  0  0  0  0  0
   10.6412   -3.5089   21.7936 C   0  0  0  0  0  0  0  0  0  0  0  0
   10.4972   -3.8968   24.1589 C   0  0  0  0  0  0  0  0  0  0  0  0
    5.9260   -8.2736   16.5517 C   0  0  0  0  0  0  0  0  0  0  0  0
    3.8816   -9.1166   17.2493 C   0  0  0  0  0  0  0  0  0  0  0  0
   10.1297   -1.6575   23.2324 C   0  0  0  0  0  0  0  0  0  0  0  0
    9.4684   -1.6929   26.7263 F   0  0  0  0  0  0  0  0  0  0  0  0
    7.7963   -7.7906   17.9837 C   0  0  0  0  0  0  0  0  0  0  0  0
   10.5884   -3.0725   16.7902 O   0  0  0  0  0  0  0  0  0  0  0  0
   10.4323   -5.3494   20.3516 C   0  0  0  0  0  0  0  0  0  0  0  0
    7.1156   -7.5454   16.8218 C   0  0  0  0  0  0  0  0  0  0  0  0
   10.3885   -4.4388   19.2773 C   0  0  0  0  0  0  0  0  0  0  0  0
    4.5160   -9.3822   15.0841 C   0  0  0  0  0  0  0  0  0  0  0  0
  1  3  4  0
  1 24  4  0
  2  6  4  0
  2 15  4  0
  3  5  4  0
  3  6  4  0
  4 21  4  0
  4 29  4  0
  5 15  4  0
  5 28  1  0
  6 16  4  0
  7 18  4  0
  7 26  4  0
  8 18  1  0
  8 19  4  0
  8 22  4  0
  9 12  4  0
  9 19  4  0
 10 12  4  0
 10 22  4  0
 11 20  4  0
 11 21  4  0
 12 23  1  0
 13 20  4  0
 13 29  4  0
 14 17  4  0
 14 28  4  0
 15 25  2  0
 16 27  4  0
 17 18  4  0
 20 27  1  0
 24 27  4  0
 26 28  4  0
M  END
$$$$

 Created by Python create_sdf_string function

 29 33  0  0  0  0  0  0  0  0999 V2000
    8.8270   -7.0288   18.4251 C   0  0  0  0  0  0  0  0  0  0  0  0
    9.1576   -4.6236   15.8860 O   0  0  0  0  0  0  0  0  0  0  0  0
    9.1509   -5.9108   17.7177 C   0  0  0  0  0  0  0  0  0  0  0  0
    3.6373   -9.5349   16.0582 N   0  0  0  0  0  0  0  0  0  0  0  0
    9.9275   -4.8001   18.0438 N   0  0  0  0  0  0  0  0  0  0  0  0
    8.5908   -5.7425   16.4412 C   0  0  0  0  0  0  0  0  0  0  0  0
   10.5993   -4.8981   21.6068 C   0  0  0  0  0  0  0  0  0  0  0  0
   10.4258   -3.0106   23.0998 C   0  0  0  0  0  0  0  0  0  0  0  0
   10.2148   -3.4364   25.4200 C   0  0  0  0  0  0  0  0  0  0  0  0
    9.7853   -1.1840   24.4927 C   0  0  0  0  0  0  0  0  0  0  0  0
    5.0276   -8.5227   17.5352 C   0  0  0  0  0  0  0  0  0  0  0  0
    9.8187   -2.0895   25.5800 C   0  0  0  0  0  0  0  0  0  0  0  0
    5.6473   -8.7216   15.3158 C   0  0  0  0  0  0  0  0  0  0  0  0
   10.7581   -3.1233   19.4720 N   0  0  0  0  0  0  0  0  0  0  0  0
    9.9571   -4.0573   16.8866 C   0  0  0  0  0  0  0  0  0  0  0  0
    7.6213   -6.5618   16.0087 C   0  0  0  0  0  0  0  0  0  0  0  0
   10.8583   -2.6527   20.7222 C   0  0  0  0  0  0  0  0  0  0  0  0
   10.6412   -3.5089   21.7936 C   0  0  0  0  0  0  0  0  0  0  0  0
   10.4972   -3.8968   24.1589 C   0  0  0  0  0  0  0  0  0  0  0  0
    5.9260   -8.2736   16.5517 C   0  0  0  0  0  0  0  0  0  0  0  0
    3.8816   -9.1166   17.2493 C   0  0  0  0  0  0  0  0  0  0  0  0
   10.1297   -1.6575   23.2324 C   0  0  0  0  0  0  0  0  0  0  0  0
    9.4684   -1.6929   26.7263 F   0  0  0  0  0  0  0  0  0  0  0  0
    7.7963   -7.7906   17.9837 C   0  0  0  0  0  0  0  0  0  0  0  0
   10.5884   -3.0725   16.7902 O   0  0  0  0  0  0  0  0  0  0  0  0
   10.4323   -5.3494   20.3516 C   0  0  0  0  0  0  0  0  0  0  0  0
    7.1156   -7.5454   16.8218 C   0  0  0  0  0  0  0  0  0  0  0  0
   10.3885   -4.4388   19.2773 C   0  0  0  0  0  0  0  0  0  0  0  0
    4.5160   -9.3822   15.0841 C   0  0  0  0  0  0  0  0  0  0  0  0
  1  3  4  0
  1 24  4  0
  2  6  4  0
  2 15  4  0
  3  5  4  0
  3  6  4  0
  4 21  4  0
  4 29  4  0
  5 15  4  0
  5 28  1  0
  6 16  4  0
  7 18  4  0
  7 26  4  0
  8 18  1  0
  8 19  4  0
  8 22  4  0
  9 12  4  0
  9 19  4  0
 10 12  4  0
 10 22  4  0
 11 20  4  0
 11 21  4  0
 12 23  1  0
 13 20  4  0
 13 29  4  0
 14 17  4  0
 14 28  4  0
 15 25  2  0
 16 27  4  0
 17 18  4  0
 20 27  1  0
 24 27  4  0
 26 28  4  0
M  END
$$$$

 Created by Python create_sdf_string function

 29 33  0  0  0  0  0  0  0  0999 V2000
    8.8270   -7.0288   18.4251 C   0  0  0  0  0  0  0  0  0  0  0  0
    9.1576   -4.6236   15.8860 O   0  0  0  0  0  0  0  0  0  0  0  0
    9.1509   -5.9108   17.7177 C   0  0  0  0  0  0  0  0  0  0  0  0
    3.6373   -9.5349   16.0582 N   0  0  0  0  0  0  0  0  0  0  0  0
    9.9275   -4.8001   18.0438 N   0  0  0  0  0  0  0  0  0  0  0  0
    8.5908   -5.7425   16.4412 C   0  0  0  0  0  0  0  0  0  0  0  0
   10.5993   -4.8981   21.6068 C   0  0  0  0  0  0  0  0  0  0  0  0
   10.4258   -3.0106   23.0998 C   0  0  0  0  0  0  0  0  0  0  0  0
   10.2148   -3.4364   25.4200 C   0  0  0  0  0  0  0  0  0  0  0  0
    9.7853   -1.1840   24.4927 C   0  0  0  0  0  0  0  0  0  0  0  0
    5.0276   -8.5227   17.5352 C   0  0  0  0  0  0  0  0  0  0  0  0
    9.8187   -2.0895   25.5800 C   0  0  0  0  0  0  0  0  0  0  0  0
    5.6473   -8.7216   15.3158 C   0  0  0  0  0  0  0  0  0  0  0  0
   10.7581   -3.1233   19.4720 N   0  0  0  0  0  0  0  0  0  0  0  0
    9.9571   -4.0573   16.8866 C   0  0  0  0  0  0  0  0  0  0  0  0
    7.6213   -6.5618   16.0087 C   0  0  0  0  0  0  0  0  0  0  0  0
   10.8583   -2.6527   20.7222 C   0  0  0  0  0  0  0  0  0  0  0  0
   10.6412   -3.5089   21.7936 C   0  0  0  0  0  0  0  0  0  0  0  0
   10.4972   -3.8968   24.1589 C   0  0  0  0  0  0  0  0  0  0  0  0
    5.9260   -8.2736   16.5517 C   0  0  0  0  0  0  0  0  0  0  0  0
    3.8816   -9.1166   17.2493 C   0  0  0  0  0  0  0  0  0  0  0  0
   10.1297   -1.6575   23.2324 C   0  0  0  0  0  0  0  0  0  0  0  0
    9.4684   -1.6929   26.7263 F   0  0  0  0  0  0  0  0  0  0  0  0
    7.7963   -7.7906   17.9837 C   0  0  0  0  0  0  0  0  0  0  0  0
   10.5884   -3.0725   16.7902 O   0  0  0  0  0  0  0  0  0  0  0  0
   10.4323   -5.3494   20.3516 C   0  0  0  0  0  0  0  0  0  0  0  0
    7.1156   -7.5454   16.8218 C   0  0  0  0  0  0  0  0  0  0  0  0
   10.3885   -4.4388   19.2773 C   0  0  0  0  0  0  0  0  0  0  0  0
    4.5160   -9.3822   15.0841 C   0  0  0  0  0  0  0  0  0  0  0  0
  1  3  4  0
  1 24  4  0
  2  6  4  0
  2 15  4  0
  3  5  4  0
  3  6  4  0
  4 21  4  0
  4 29  4  0
  5 15  4  0
  5 28  1  0
  6 16  4  0
  7 18  4  0
  7 26  4  0
  8 18  1  0
  8 19  4  0
  8 22  4  0
  9 12  4  0
  9 19  4  0
 10 12  4  0
 10 22  4  0
 11 20  4  0
 11 21  4  0
 12 23  1  0
 13 20  4  0
 13 29  4  0
 14 17  4  0
 14 28  4  0
 15 25  2  0
 16 27  4  0
 17 18  4  0
 20 27  1  0
 24 27  4  0
 26 28  4  0
M  END
$$$$

 Created by Python create_sdf_string function

 29 33  0  0  0  0  0  0  0  0999 V2000
    8.8270   -7.0288   18.4251 C   0  0  0  0  0  0  0  0  0  0  0  0
    9.1576   -4.6236   15.8860 O   0  0  0  0  0  0  0  0  0  0  0  0
    9.1509   -5.9108   17.7177 C   0  0  0  0  0  0  0  0  0  0  0  0
    3.6373   -9.5349   16.0582 N   0  0  0  0  0  0  0  0  0  0  0  0
    9.9275   -4.8001   18.0438 N   0  0  0  0  0  0  0  0  0  0  0  0
    8.5908   -5.7425   16.4412 C   0  0  0  0  0  0  0  0  0  0  0  0
   10.5993   -4.8981   21.6068 C   0  0  0  0  0  0  0  0  0  0  0  0
   10.4258   -3.0106   23.0998 C   0  0  0  0  0  0  0  0  0  0  0  0
   10.2148   -3.4364   25.4200 C   0  0  0  0  0  0  0  0  0  0  0  0
    9.7853   -1.1840   24.4927 C   0  0  0  0  0  0  0  0  0  0  0  0
    5.0276   -8.5227   17.5352 C   0  0  0  0  0  0  0  0  0  0  0  0
    9.8187   -2.0895   25.5800 C   0  0  0  0  0  0  0  0  0  0  0  0
    5.6473   -8.7216   15.3158 C   0  0  0  0  0  0  0  0  0  0  0  0
   10.7581   -3.1233   19.4720 N   0  0  0  0  0  0  0  0  0  0  0  0
    9.9571   -4.0573   16.8866 C   0  0  0  0  0  0  0  0  0  0  0  0
    7.6213   -6.5618   16.0087 C   0  0  0  0  0  0  0  0  0  0  0  0
   10.8583   -2.6527   20.7222 C   0  0  0  0  0  0  0  0  0  0  0  0
   10.6412   -3.5089   21.7936 C   0  0  0  0  0  0  0  0  0  0  0  0
   10.4972   -3.8968   24.1589 C   0  0  0  0  0  0  0  0  0  0  0  0
    5.9260   -8.2736   16.5517 C   0  0  0  0  0  0  0  0  0  0  0  0
    3.8816   -9.1166   17.2493 C   0  0  0  0  0  0  0  0  0  0  0  0
   10.1297   -1.6575   23.2324 C   0  0  0  0  0  0  0  0  0  0  0  0
    9.4684   -1.6929   26.7263 F   0  0  0  0  0  0  0  0  0  0  0  0
    7.7963   -7.7906   17.9837 C   0  0  0  0  0  0  0  0  0  0  0  0
   10.5884   -3.0725   16.7902 O   0  0  0  0  0  0  0  0  0  0  0  0
   10.4323   -5.3494   20.3516 C   0  0  0  0  0  0  0  0  0  0  0  0
    7.1156   -7.5454   16.8218 C   0  0  0  0  0  0  0  0  0  0  0  0
   10.3885   -4.4388   19.2773 C   0  0  0  0  0  0  0  0  0  0  0  0
    4.5160   -9.3822   15.0841 C   0  0  0  0  0  0  0  0  0  0  0  0
  1  3  4  0
  1 24  4  0
  2  6  4  0
  2 15  4  0
  3  5  4  0
  3  6  4  0
  4 21  4  0
  4 29  4  0
  5 15  4  0
  5 28  1  0
  6 16  4  0
  7 18  4  0
  7 26  4  0
  8 18  1  0
  8 19  4  0
  8 22  4  0
  9 12  4  0
  9 19  4  0
 10 12  4  0
 10 22  4  0
 11 20  4  0
 11 21  4  0
 12 23  1  0
 13 20  4  0
 13 29  4  0
 14 17  4  0
 14 28  4  0
 15 25  2  0
 16 27  4  0
 17 18  4  0
 20 27  1  0
 24 27  4  0
 26 28  4  0
M  END
$$$$

 Created by Python create_sdf_string function

 29 33  0  0  0  0  0  0  0  0999 V2000
    8.8270   -7.0288   18.4251 C   0  0  0  0  0  0  0  0  0  0  0  0
    9.1576   -4.6236   15.8860 O   0  0  0  0  0  0  0  0  0  0  0  0
    9.1509   -5.9108   17.7177 C   0  0  0  0  0  0  0  0  0  0  0  0
    3.6373   -9.5349   16.0582 N   0  0  0  0  0  0  0  0  0  0  0  0
    9.9275   -4.8001   18.0438 N   0  0  0  0  0  0  0  0  0  0  0  0
    8.5908   -5.7425   16.4412 C   0  0  0  0  0  0  0  0  0  0  0  0
   10.5993   -4.8981   21.6068 C   0  0  0  0  0  0  0  0  0  0  0  0
   10.4258   -3.0106   23.0998 C   0  0  0  0  0  0  0  0  0  0  0  0
   10.2148   -3.4364   25.4200 C   0  0  0  0  0  0  0  0  0  0  0  0
    9.7853   -1.1840   24.4927 C   0  0  0  0  0  0  0  0  0  0  0  0
    5.0276   -8.5227   17.5352 C   0  0  0  0  0  0  0  0  0  0  0  0
    9.8187   -2.0895   25.5800 C   0  0  0  0  0  0  0  0  0  0  0  0
    5.6473   -8.7216   15.3158 C   0  0  0  0  0  0  0  0  0  0  0  0
   10.7581   -3.1233   19.4720 N   0  0  0  0  0  0  0  0  0  0  0  0
    9.9571   -4.0573   16.8866 C   0  0  0  0  0  0  0  0  0  0  0  0
    7.6213   -6.5618   16.0087 C   0  0  0  0  0  0  0  0  0  0  0  0
   10.8583   -2.6527   20.7222 C   0  0  0  0  0  0  0  0  0  0  0  0
   10.6412   -3.5089   21.7936 C   0  0  0  0  0  0  0  0  0  0  0  0
   10.4972   -3.8968   24.1589 C   0  0  0  0  0  0  0  0  0  0  0  0
    5.9260   -8.2736   16.5517 C   0  0  0  0  0  0  0  0  0  0  0  0
    3.8816   -9.1166   17.2493 C   0  0  0  0  0  0  0  0  0  0  0  0
   10.1297   -1.6575   23.2324 C   0  0  0  0  0  0  0  0  0  0  0  0
    9.4684   -1.6929   26.7263 F   0  0  0  0  0  0  0  0  0  0  0  0
    7.7963   -7.7906   17.9837 C   0  0  0  0  0  0  0  0  0  0  0  0
   10.5884   -3.0725   16.7902 O   0  0  0  0  0  0  0  0  0  0  0  0
   10.4323   -5.3494   20.3516 C   0  0  0  0  0  0  0  0  0  0  0  0
    7.1156   -7.5454   16.8218 C   0  0  0  0  0  0  0  0  0  0  0  0
   10.3885   -4.4388   19.2773 C   0  0  0  0  0  0  0  0  0  0  0  0
    4.5160   -9.3822   15.0841 C   0  0  0  0  0  0  0  0  0  0  0  0
  1  3  4  0
  1 24  4  0
  2  6  4  0
  2 15  4  0
  3  5  4  0
  3  6  4  0
  4 21  4  0
  4 29  4  0
  5 15  4  0
  5 28  1  0
  6 16  4  0
  7 18  4  0
  7 26  4  0
  8 18  1  0
  8 19  4  0
  8 22  4  0
  9 12  4  0
  9 19  4  0
 10 12  4  0
 10 22  4  0
 11 20  4  0
 11 21  4  0
 12 23  1  0
 13 20  4  0
 13 29  4  0
 14 17  4  0
 14 28  4  0
 15 25  2  0
 16 27  4  0
 17 18  4  0
 20 27  1  0
 24 27  4  0
 26 28  4  0
M  END
$$$$

 Created by Python create_sdf_string function

 29 33  0  0  0  0  0  0  0  0999 V2000
    8.8270   -7.0288   18.4251 C   0  0  0  0  0  0  0  0  0  0  0  0
    9.1576   -4.6236   15.8860 O   0  0  0  0  0  0  0  0  0  0  0  0
    9.1509   -5.9108   17.7177 C   0  0  0  0  0  0  0  0  0  0  0  0
    3.6373   -9.5349   16.0582 N   0  0  0  0  0  0  0  0  0  0  0  0
    9.9275   -4.8001   18.0438 N   0  0  0  0  0  0  0  0  0  0  0  0
    8.5908   -5.7425   16.4412 C   0  0  0  0  0  0  0  0  0  0  0  0
   10.5993   -4.8981   21.6068 C   0  0  0  0  0  0  0  0  0  0  0  0
   10.4258   -3.0106   23.0998 C   0  0  0  0  0  0  0  0  0  0  0  0
   10.2148   -3.4364   25.4200 C   0  0  0  0  0  0  0  0  0  0  0  0
    9.7853   -1.1840   24.4927 C   0  0  0  0  0  0  0  0  0  0  0  0
    5.0276   -8.5227   17.5352 C   0  0  0  0  0  0  0  0  0  0  0  0
    9.8187   -2.0895   25.5800 C   0  0  0  0  0  0  0  0  0  0  0  0
    5.6473   -8.7216   15.3158 C   0  0  0  0  0  0  0  0  0  0  0  0
   10.7581   -3.1233   19.4720 N   0  0  0  0  0  0  0  0  0  0  0  0
    9.9571   -4.0573   16.8866 C   0  0  0  0  0  0  0  0  0  0  0  0
    7.6213   -6.5618   16.0087 C   0  0  0  0  0  0  0  0  0  0  0  0
   10.8583   -2.6527   20.7222 C   0  0  0  0  0  0  0  0  0  0  0  0
   10.6412   -3.5089   21.7936 C   0  0  0  0  0  0  0  0  0  0  0  0
   10.4972   -3.8968   24.1589 C   0  0  0  0  0  0  0  0  0  0  0  0
    5.9260   -8.2736   16.5517 C   0  0  0  0  0  0  0  0  0  0  0  0
    3.8816   -9.1166   17.2493 C   0  0  0  0  0  0  0  0  0  0  0  0
   10.1297   -1.6575   23.2324 C   0  0  0  0  0  0  0  0  0  0  0  0
    9.4684   -1.6929   26.7263 F   0  0  0  0  0  0  0  0  0  0  0  0
    7.7963   -7.7906   17.9837 C   0  0  0  0  0  0  0  0  0  0  0  0
   10.5884   -3.0725   16.7902 O   0  0  0  0  0  0  0  0  0  0  0  0
   10.4323   -5.3494   20.3516 C   0  0  0  0  0  0  0  0  0  0  0  0
    7.1156   -7.5454   16.8218 C   0  0  0  0  0  0  0  0  0  0  0  0
   10.3885   -4.4388   19.2773 C   0  0  0  0  0  0  0  0  0  0  0  0
    4.5160   -9.3822   15.0841 C   0  0  0  0  0  0  0  0  0  0  0  0
  1  3  4  0
  1 24  4  0
  2  6  4  0
  2 15  4  0
  3  5  4  0
  3  6  4  0
  4 21  4  0
  4 29  4  0
  5 15  4  0
  5 28  1  0
  6 16  4  0
  7 18  4  0
  7 26  4  0
  8 18  1  0
  8 19  4  0
  8 22  4  0
  9 12  4  0
  9 19  4  0
 10 12  4  0
 10 22  4  0
 11 20  4  0
 11 21  4  0
 12 23  1  0
 13 20  4  0
 13 29  4  0
 14 17  4  0
 14 28  4  0
 15 25  2  0
 16 27  4  0
 17 18  4  0
 20 27  1  0
 24 27  4  0
 26 28  4  0
M  END
$$$$

 Created by Python create_sdf_string function

 29 33  0  0  0  0  0  0  0  0999 V2000
    8.8270   -7.0288   18.4251 C   0  0  0  0  0  0  0  0  0  0  0  0
    9.1576   -4.6236   15.8860 O   0  0  0  0  0  0  0  0  0  0  0  0
    9.1509   -5.9108   17.7177 C   0  0  0  0  0  0  0  0  0  0  0  0
    3.6373   -9.5349   16.0582 N   0  0  0  0  0  0  0  0  0  0  0  0
    9.9275   -4.8001   18.0438 N   0  0  0  0  0  0  0  0  0  0  0  0
    8.5908   -5.7425   16.4412 C   0  0  0  0  0  0  0  0  0  0  0  0
   10.5993   -4.8981   21.6068 C   0  0  0  0  0  0  0  0  0  0  0  0
   10.4258   -3.0106   23.0998 C   0  0  0  0  0  0  0  0  0  0  0  0
   10.2148   -3.4364   25.4200 C   0  0  0  0  0  0  0  0  0  0  0  0
    9.7853   -1.1840   24.4927 C   0  0  0  0  0  0  0  0  0  0  0  0
    5.0276   -8.5227   17.5352 C   0  0  0  0  0  0  0  0  0  0  0  0
    9.8187   -2.0895   25.5800 C   0  0  0  0  0  0  0  0  0  0  0  0
    5.6473   -8.7216   15.3158 C   0  0  0  0  0  0  0  0  0  0  0  0
   10.7581   -3.1233   19.4720 N   0  0  0  0  0  0  0  0  0  0  0  0
    9.9571   -4.0573   16.8866 C   0  0  0  0  0  0  0  0  0  0  0  0
    7.6213   -6.5618   16.0087 C   0  0  0  0  0  0  0  0  0  0  0  0
   10.8583   -2.6527   20.7222 C   0  0  0  0  0  0  0  0  0  0  0  0
   10.6412   -3.5089   21.7936 C   0  0  0  0  0  0  0  0  0  0  0  0
   10.4972   -3.8968   24.1589 C   0  0  0  0  0  0  0  0  0  0  0  0
    5.9260   -8.2736   16.5517 C   0  0  0  0  0  0  0  0  0  0  0  0
    3.8816   -9.1166   17.2493 C   0  0  0  0  0  0  0  0  0  0  0  0
   10.1297   -1.6575   23.2324 C   0  0  0  0  0  0  0  0  0  0  0  0
    9.4684   -1.6929   26.7263 F   0  0  0  0  0  0  0  0  0  0  0  0
    7.7963   -7.7906   17.9837 C   0  0  0  0  0  0  0  0  0  0  0  0
   10.5884   -3.0725   16.7902 O   0  0  0  0  0  0  0  0  0  0  0  0
   10.4323   -5.3494   20.3516 C   0  0  0  0  0  0  0  0  0  0  0  0
    7.1156   -7.5454   16.8218 C   0  0  0  0  0  0  0  0  0  0  0  0
   10.3885   -4.4388   19.2773 C   0  0  0  0  0  0  0  0  0  0  0  0
    4.5160   -9.3822   15.0841 C   0  0  0  0  0  0  0  0  0  0  0  0
  1  3  4  0
  1 24  4  0
  2  6  4  0
  2 15  4  0
  3  5  4  0
  3  6  4  0
  4 21  4  0
  4 29  4  0
  5 15  4  0
  5 28  1  0
  6 16  4  0
  7 18  4  0
  7 26  4  0
  8 18  1  0
  8 19  4  0
  8 22  4  0
  9 12  4  0
  9 19  4  0
 10 12  4  0
 10 22  4  0
 11 20  4  0
 11 21  4  0
 12 23  1  0
 13 20  4  0
 13 29  4  0
 14 17  4  0
 14 28  4  0
 15 25  2  0
 16 27  4  0
 17 18  4  0
 20 27  1  0
 24 27  4  0
 26 28  4  0
M  END
$$$$

 Created by Python create_sdf_string function

 29 33  0  0  0  0  0  0  0  0999 V2000
    8.8270   -7.0288   18.4251 C   0  0  0  0  0  0  0  0  0  0  0  0
    9.1576   -4.6236   15.8860 O   0  0  0  0  0  0  0  0  0  0  0  0
    9.1509   -5.9108   17.7177 C   0  0  0  0  0  0  0  0  0  0  0  0
    3.6373   -9.5349   16.0582 N   0  0  0  0  0  0  0  0  0  0  0  0
    9.9275   -4.8001   18.0438 N   0  0  0  0  0  0  0  0  0  0  0  0
    8.5908   -5.7425   16.4412 C   0  0  0  0  0  0  0  0  0  0  0  0
   10.5993   -4.8981   21.6068 C   0  0  0  0  0  0  0  0  0  0  0  0
   10.4258   -3.0106   23.0998 C   0  0  0  0  0  0  0  0  0  0  0  0
   10.2148   -3.4364   25.4200 C   0  0  0  0  0  0  0  0  0  0  0  0
    9.7853   -1.1840   24.4927 C   0  0  0  0  0  0  0  0  0  0  0  0
    5.0276   -8.5227   17.5352 C   0  0  0  0  0  0  0  0  0  0  0  0
    9.8187   -2.0895   25.5800 C   0  0  0  0  0  0  0  0  0  0  0  0
    5.6473   -8.7216   15.3158 C   0  0  0  0  0  0  0  0  0  0  0  0
   10.7581   -3.1233   19.4720 N   0  0  0  0  0  0  0  0  0  0  0  0
    9.9571   -4.0573   16.8866 C   0  0  0  0  0  0  0  0  0  0  0  0
    7.6213   -6.5618   16.0087 C   0  0  0  0  0  0  0  0  0  0  0  0
   10.8583   -2.6527   20.7222 C   0  0  0  0  0  0  0  0  0  0  0  0
   10.6412   -3.5089   21.7936 C   0  0  0  0  0  0  0  0  0  0  0  0
   10.4972   -3.8968   24.1589 C   0  0  0  0  0  0  0  0  0  0  0  0
    5.9260   -8.2736   16.5517 C   0  0  0  0  0  0  0  0  0  0  0  0
    3.8816   -9.1166   17.2493 C   0  0  0  0  0  0  0  0  0  0  0  0
   10.1297   -1.6575   23.2324 C   0  0  0  0  0  0  0  0  0  0  0  0
    9.4684   -1.6929   26.7263 F   0  0  0  0  0  0  0  0  0  0  0  0
    7.7963   -7.7906   17.9837 C   0  0  0  0  0  0  0  0  0  0  0  0
   10.5884   -3.0725   16.7902 O   0  0  0  0  0  0  0  0  0  0  0  0
   10.4323   -5.3494   20.3516 C   0  0  0  0  0  0  0  0  0  0  0  0
    7.1156   -7.5454   16.8218 C   0  0  0  0  0  0  0  0  0  0  0  0
   10.3885   -4.4388   19.2773 C   0  0  0  0  0  0  0  0  0  0  0  0
    4.5160   -9.3822   15.0841 C   0  0  0  0  0  0  0  0  0  0  0  0
  1  3  4  0
  1 24  4  0
  2  6  4  0
  2 15  4  0
  3  5  4  0
  3  6  4  0
  4 21  4  0
  4 29  4  0
  5 15  4  0
  5 28  1  0
  6 16  4  0
  7 18  4  0
  7 26  4  0
  8 18  1  0
  8 19  4  0
  8 22  4  0
  9 12  4  0
  9 19  4  0
 10 12  4  0
 10 22  4  0
 11 20  4  0
 11 21  4  0
 12 23  1  0
 13 20  4  0
 13 29  4  0
 14 17  4  0
 14 28  4  0
 15 25  2  0
 16 27  4  0
 17 18  4  0
 20 27  1  0
 24 27  4  0
 26 28  4  0
M  END
$$$$

 Created by Python create_sdf_string function

 29 33  0  0  0  0  0  0  0  0999 V2000
    8.8270   -7.0288   18.4251 C   0  0  0  0  0  0  0  0  0  0  0  0
    9.1576   -4.6236   15.8860 O   0  0  0  0  0  0  0  0  0  0  0  0
    9.1509   -5.9108   17.7177 C   0  0  0  0  0  0  0  0  0  0  0  0
    3.6373   -9.5349   16.0582 N   0  0  0  0  0  0  0  0  0  0  0  0
    9.9275   -4.8001   18.0438 N   0  0  0  0  0  0  0  0  0  0  0  0
    8.5908   -5.7425   16.4412 C   0  0  0  0  0  0  0  0  0  0  0  0
   10.5993   -4.8981   21.6068 C   0  0  0  0  0  0  0  0  0  0  0  0
   10.4258   -3.0106   23.0998 C   0  0  0  0  0  0  0  0  0  0  0  0
   10.2148   -3.4364   25.4200 C   0  0  0  0  0  0  0  0  0  0  0  0
    9.7853   -1.1840   24.4927 C   0  0  0  0  0  0  0  0  0  0  0  0
    5.0276   -8.5227   17.5352 C   0  0  0  0  0  0  0  0  0  0  0  0
    9.8187   -2.0895   25.5800 C   0  0  0  0  0  0  0  0  0  0  0  0
    5.6473   -8.7216   15.3158 C   0  0  0  0  0  0  0  0  0  0  0  0
   10.7581   -3.1233   19.4720 N   0  0  0  0  0  0  0  0  0  0  0  0
    9.9571   -4.0573   16.8866 C   0  0  0  0  0  0  0  0  0  0  0  0
    7.6213   -6.5618   16.0087 C   0  0  0  0  0  0  0  0  0  0  0  0
   10.8583   -2.6527   20.7222 C   0  0  0  0  0  0  0  0  0  0  0  0
   10.6412   -3.5089   21.7936 C   0  0  0  0  0  0  0  0  0  0  0  0
   10.4972   -3.8968   24.1589 C   0  0  0  0  0  0  0  0  0  0  0  0
    5.9260   -8.2736   16.5517 C   0  0  0  0  0  0  0  0  0  0  0  0
    3.8816   -9.1166   17.2493 C   0  0  0  0  0  0  0  0  0  0  0  0
   10.1297   -1.6575   23.2324 C   0  0  0  0  0  0  0  0  0  0  0  0
    9.4684   -1.6929   26.7263 F   0  0  0  0  0  0  0  0  0  0  0  0
    7.7963   -7.7906   17.9837 C   0  0  0  0  0  0  0  0  0  0  0  0
   10.5884   -3.0725   16.7902 O   0  0  0  0  0  0  0  0  0  0  0  0
   10.4323   -5.3494   20.3516 C   0  0  0  0  0  0  0  0  0  0  0  0
    7.1156   -7.5454   16.8218 C   0  0  0  0  0  0  0  0  0  0  0  0
   10.3885   -4.4388   19.2773 C   0  0  0  0  0  0  0  0  0  0  0  0
    4.5160   -9.3822   15.0841 C   0  0  0  0  0  0  0  0  0  0  0  0
  1  3  4  0
  1 24  4  0
  2  6  4  0
  2 15  4  0
  3  5  4  0
  3  6  4  0
  4 21  4  0
  4 29  4  0
  5 15  4  0
  5 28  1  0
  6 16  4  0
  7 18  4  0
  7 26  4  0
  8 18  1  0
  8 19  4  0
  8 22  4  0
  9 12  4  0
  9 19  4  0
 10 12  4  0
 10 22  4  0
 11 20  4  0
 11 21  4  0
 12 23  1  0
 13 20  4  0
 13 29  4  0
 14 17  4  0
 14 28  4  0
 15 25  2  0
 16 27  4  0
 17 18  4  0
 20 27  1  0
 24 27  4  0
 26 28  4  0
M  END
$$$$

 Created by Python create_sdf_string function

 29 33  0  0  0  0  0  0  0  0999 V2000
    8.8270   -7.0288   18.4251 C   0  0  0  0  0  0  0  0  0  0  0  0
    9.1576   -4.6236   15.8860 O   0  0  0  0  0  0  0  0  0  0  0  0
    9.1509   -5.9108   17.7177 C   0  0  0  0  0  0  0  0  0  0  0  0
    3.6373   -9.5349   16.0582 N   0  0  0  0  0  0  0  0  0  0  0  0
    9.9275   -4.8001   18.0438 N   0  0  0  0  0  0  0  0  0  0  0  0
    8.5908   -5.7425   16.4412 C   0  0  0  0  0  0  0  0  0  0  0  0
   10.5993   -4.8981   21.6068 C   0  0  0  0  0  0  0  0  0  0  0  0
   10.4258   -3.0106   23.0998 C   0  0  0  0  0  0  0  0  0  0  0  0
   10.2148   -3.4364   25.4200 C   0  0  0  0  0  0  0  0  0  0  0  0
    9.7853   -1.1840   24.4927 C   0  0  0  0  0  0  0  0  0  0  0  0
    5.0276   -8.5227   17.5352 C   0  0  0  0  0  0  0  0  0  0  0  0
    9.8187   -2.0895   25.5800 C   0  0  0  0  0  0  0  0  0  0  0  0
    5.6473   -8.7216   15.3158 C   0  0  0  0  0  0  0  0  0  0  0  0
   10.7581   -3.1233   19.4720 N   0  0  0  0  0  0  0  0  0  0  0  0
    9.9571   -4.0573   16.8866 C   0  0  0  0  0  0  0  0  0  0  0  0
    7.6213   -6.5618   16.0087 C   0  0  0  0  0  0  0  0  0  0  0  0
   10.8583   -2.6527   20.7222 C   0  0  0  0  0  0  0  0  0  0  0  0
   10.6412   -3.5089   21.7936 C   0  0  0  0  0  0  0  0  0  0  0  0
   10.4972   -3.8968   24.1589 C   0  0  0  0  0  0  0  0  0  0  0  0
    5.9260   -8.2736   16.5517 C   0  0  0  0  0  0  0  0  0  0  0  0
    3.8816   -9.1166   17.2493 C   0  0  0  0  0  0  0  0  0  0  0  0
   10.1297   -1.6575   23.2324 C   0  0  0  0  0  0  0  0  0  0  0  0
    9.4684   -1.6929   26.7263 F   0  0  0  0  0  0  0  0  0  0  0  0
    7.7963   -7.7906   17.9837 C   0  0  0  0  0  0  0  0  0  0  0  0
   10.5884   -3.0725   16.7902 O   0  0  0  0  0  0  0  0  0  0  0  0
   10.4323   -5.3494   20.3516 C   0  0  0  0  0  0  0  0  0  0  0  0
    7.1156   -7.5454   16.8218 C   0  0  0  0  0  0  0  0  0  0  0  0
   10.3885   -4.4388   19.2773 C   0  0  0  0  0  0  0  0  0  0  0  0
    4.5160   -9.3822   15.0841 C   0  0  0  0  0  0  0  0  0  0  0  0
  1  3  4  0
  1 24  4  0
  2  6  4  0
  2 15  4  0
  3  5  4  0
  3  6  4  0
  4 21  4  0
  4 29  4  0
  5 15  4  0
  5 28  1  0
  6 16  4  0
  7 18  4  0
  7 26  4  0
  8 18  1  0
  8 19  4  0
  8 22  4  0
  9 12  4  0
  9 19  4  0
 10 12  4  0
 10 22  4  0
 11 20  4  0
 11 21  4  0
 12 23  1  0
 13 20  4  0
 13 29  4  0
 14 17  4  0
 14 28  4  0
 15 25  2  0
 16 27  4  0
 17 18  4  0
 20 27  1  0
 24 27  4  0
 26 28  4  0
M  END
$$$$

 Created by Python create_sdf_string function

 29 33  0  0  0  0  0  0  0  0999 V2000
    8.8270   -7.0288   18.4251 C   0  0  0  0  0  0  0  0  0  0  0  0
    9.1576   -4.6236   15.8860 O   0  0  0  0  0  0  0  0  0  0  0  0
    9.1509   -5.9108   17.7177 C   0  0  0  0  0  0  0  0  0  0  0  0
    3.6373   -9.5349   16.0582 N   0  0  0  0  0  0  0  0  0  0  0  0
    9.9275   -4.8001   18.0438 N   0  0  0  0  0  0  0  0  0  0  0  0
    8.5908   -5.7425   16.4412 C   0  0  0  0  0  0  0  0  0  0  0  0
   10.5993   -4.8981   21.6068 C   0  0  0  0  0  0  0  0  0  0  0  0
   10.4258   -3.0106   23.0998 C   0  0  0  0  0  0  0  0  0  0  0  0
   10.2148   -3.4364   25.4200 C   0  0  0  0  0  0  0  0  0  0  0  0
    9.7853   -1.1840   24.4927 C   0  0  0  0  0  0  0  0  0  0  0  0
    5.0276   -8.5227   17.5352 C   0  0  0  0  0  0  0  0  0  0  0  0
    9.8187   -2.0895   25.5800 C   0  0  0  0  0  0  0  0  0  0  0  0
    5.6473   -8.7216   15.3158 C   0  0  0  0  0  0  0  0  0  0  0  0
   10.7581   -3.1233   19.4720 N   0  0  0  0  0  0  0  0  0  0  0  0
    9.9571   -4.0573   16.8866 C   0  0  0  0  0  0  0  0  0  0  0  0
    7.6213   -6.5618   16.0087 C   0  0  0  0  0  0  0  0  0  0  0  0
   10.8583   -2.6527   20.7222 C   0  0  0  0  0  0  0  0  0  0  0  0
   10.6412   -3.5089   21.7936 C   0  0  0  0  0  0  0  0  0  0  0  0
   10.4972   -3.8968   24.1589 C   0  0  0  0  0  0  0  0  0  0  0  0
    5.9260   -8.2736   16.5517 C   0  0  0  0  0  0  0  0  0  0  0  0
    3.8816   -9.1166   17.2493 C   0  0  0  0  0  0  0  0  0  0  0  0
   10.1297   -1.6575   23.2324 C   0  0  0  0  0  0  0  0  0  0  0  0
    9.4684   -1.6929   26.7263 F   0  0  0  0  0  0  0  0  0  0  0  0
    7.7963   -7.7906   17.9837 C   0  0  0  0  0  0  0  0  0  0  0  0
   10.5884   -3.0725   16.7902 O   0  0  0  0  0  0  0  0  0  0  0  0
   10.4323   -5.3494   20.3516 C   0  0  0  0  0  0  0  0  0  0  0  0
    7.1156   -7.5454   16.8218 C   0  0  0  0  0  0  0  0  0  0  0  0
   10.3885   -4.4388   19.2773 C   0  0  0  0  0  0  0  0  0  0  0  0
    4.5160   -9.3822   15.0841 C   0  0  0  0  0  0  0  0  0  0  0  0
  1  3  4  0
  1 24  4  0
  2  6  4  0
  2 15  4  0
  3  5  4  0
  3  6  4  0
  4 21  4  0
  4 29  4  0
  5 15  4  0
  5 28  1  0
  6 16  4  0
  7 18  4  0
  7 26  4  0
  8 18  1  0
  8 19  4  0
  8 22  4  0
  9 12  4  0
  9 19  4  0
 10 12  4  0
 10 22  4  0
 11 20  4  0
 11 21  4  0
 12 23  1  0
 13 20  4  0
 13 29  4  0
 14 17  4  0
 14 28  4  0
 15 25  2  0
 16 27  4  0
 17 18  4  0
 20 27  1  0
 24 27  4  0
 26 28  4  0
M  END
$$$$

 Created by Python create_sdf_string function

 29 33  0  0  0  0  0  0  0  0999 V2000
    8.8270   -7.0288   18.4251 C   0  0  0  0  0  0  0  0  0  0  0  0
    9.1576   -4.6236   15.8860 O   0  0  0  0  0  0  0  0  0  0  0  0
    9.1509   -5.9108   17.7177 C   0  0  0  0  0  0  0  0  0  0  0  0
    3.6373   -9.5349   16.0582 N   0  0  0  0  0  0  0  0  0  0  0  0
    9.9275   -4.8001   18.0438 N   0  0  0  0  0  0  0  0  0  0  0  0
    8.5908   -5.7425   16.4412 C   0  0  0  0  0  0  0  0  0  0  0  0
   10.5993   -4.8981   21.6068 C   0  0  0  0  0  0  0  0  0  0  0  0
   10.4258   -3.0106   23.0998 C   0  0  0  0  0  0  0  0  0  0  0  0
   10.2148   -3.4364   25.4200 C   0  0  0  0  0  0  0  0  0  0  0  0
    9.7853   -1.1840   24.4927 C   0  0  0  0  0  0  0  0  0  0  0  0
    5.0276   -8.5227   17.5352 C   0  0  0  0  0  0  0  0  0  0  0  0
    9.8187   -2.0895   25.5800 C   0  0  0  0  0  0  0  0  0  0  0  0
    5.6473   -8.7216   15.3158 C   0  0  0  0  0  0  0  0  0  0  0  0
   10.7581   -3.1233   19.4720 N   0  0  0  0  0  0  0  0  0  0  0  0
    9.9571   -4.0573   16.8866 C   0  0  0  0  0  0  0  0  0  0  0  0
    7.6213   -6.5618   16.0087 C   0  0  0  0  0  0  0  0  0  0  0  0
   10.8583   -2.6527   20.7222 C   0  0  0  0  0  0  0  0  0  0  0  0
   10.6412   -3.5089   21.7936 C   0  0  0  0  0  0  0  0  0  0  0  0
   10.4972   -3.8968   24.1589 C   0  0  0  0  0  0  0  0  0  0  0  0
    5.9260   -8.2736   16.5517 C   0  0  0  0  0  0  0  0  0  0  0  0
    3.8816   -9.1166   17.2493 C   0  0  0  0  0  0  0  0  0  0  0  0
   10.1297   -1.6575   23.2324 C   0  0  0  0  0  0  0  0  0  0  0  0
    9.4684   -1.6929   26.7263 F   0  0  0  0  0  0  0  0  0  0  0  0
    7.7963   -7.7906   17.9837 C   0  0  0  0  0  0  0  0  0  0  0  0
   10.5884   -3.0725   16.7902 O   0  0  0  0  0  0  0  0  0  0  0  0
   10.4323   -5.3494   20.3516 C   0  0  0  0  0  0  0  0  0  0  0  0
    7.1156   -7.5454   16.8218 C   0  0  0  0  0  0  0  0  0  0  0  0
   10.3885   -4.4388   19.2773 C   0  0  0  0  0  0  0  0  0  0  0  0
    4.5160   -9.3822   15.0841 C   0  0  0  0  0  0  0  0  0  0  0  0
  1  3  4  0
  1 24  4  0
  2  6  4  0
  2 15  4  0
  3  5  4  0
  3  6  4  0
  4 21  4  0
  4 29  4  0
  5 15  4  0
  5 28  1  0
  6 16  4  0
  7 18  4  0
  7 26  4  0
  8 18  1  0
  8 19  4  0
  8 22  4  0
  9 12  4  0
  9 19  4  0
 10 12  4  0
 10 22  4  0
 11 20  4  0
 11 21  4  0
 12 23  1  0
 13 20  4  0
 13 29  4  0
 14 17  4  0
 14 28  4  0
 15 25  2  0
 16 27  4  0
 17 18  4  0
 20 27  1  0
 24 27  4  0
 26 28  4  0
M  END
$$$$

 Created by Python create_sdf_string function

 29 33  0  0  0  0  0  0  0  0999 V2000
    8.8270   -7.0288   18.4251 C   0  0  0  0  0  0  0  0  0  0  0  0
    9.1576   -4.6236   15.8860 O   0  0  0  0  0  0  0  0  0  0  0  0
    9.1509   -5.9108   17.7177 C   0  0  0  0  0  0  0  0  0  0  0  0
    3.6373   -9.5349   16.0582 N   0  0  0  0  0  0  0  0  0  0  0  0
    9.9275   -4.8001   18.0438 N   0  0  0  0  0  0  0  0  0  0  0  0
    8.5908   -5.7425   16.4412 C   0  0  0  0  0  0  0  0  0  0  0  0
   10.5993   -4.8981   21.6068 C   0  0  0  0  0  0  0  0  0  0  0  0
   10.4258   -3.0106   23.0998 C   0  0  0  0  0  0  0  0  0  0  0  0
   10.2148   -3.4364   25.4200 C   0  0  0  0  0  0  0  0  0  0  0  0
    9.7853   -1.1840   24.4927 C   0  0  0  0  0  0  0  0  0  0  0  0
    5.0276   -8.5227   17.5352 C   0  0  0  0  0  0  0  0  0  0  0  0
    9.8187   -2.0895   25.5800 C   0  0  0  0  0  0  0  0  0  0  0  0
    5.6473   -8.7216   15.3158 C   0  0  0  0  0  0  0  0  0  0  0  0
   10.7581   -3.1233   19.4720 N   0  0  0  0  0  0  0  0  0  0  0  0
    9.9571   -4.0573   16.8866 C   0  0  0  0  0  0  0  0  0  0  0  0
    7.6213   -6.5618   16.0087 C   0  0  0  0  0  0  0  0  0  0  0  0
   10.8583   -2.6527   20.7222 C   0  0  0  0  0  0  0  0  0  0  0  0
   10.6412   -3.5089   21.7936 C   0  0  0  0  0  0  0  0  0  0  0  0
   10.4972   -3.8968   24.1589 C   0  0  0  0  0  0  0  0  0  0  0  0
    5.9260   -8.2736   16.5517 C   0  0  0  0  0  0  0  0  0  0  0  0
    3.8816   -9.1166   17.2493 C   0  0  0  0  0  0  0  0  0  0  0  0
   10.1297   -1.6575   23.2324 C   0  0  0  0  0  0  0  0  0  0  0  0
    9.4684   -1.6929   26.7263 F   0  0  0  0  0  0  0  0  0  0  0  0
    7.7963   -7.7906   17.9837 C   0  0  0  0  0  0  0  0  0  0  0  0
   10.5884   -3.0725   16.7902 O   0  0  0  0  0  0  0  0  0  0  0  0
   10.4323   -5.3494   20.3516 C   0  0  0  0  0  0  0  0  0  0  0  0
    7.1156   -7.5454   16.8218 C   0  0  0  0  0  0  0  0  0  0  0  0
   10.3885   -4.4388   19.2773 C   0  0  0  0  0  0  0  0  0  0  0  0
    4.5160   -9.3822   15.0841 C   0  0  0  0  0  0  0  0  0  0  0  0
  1  3  4  0
  1 24  4  0
  2  6  4  0
  2 15  4  0
  3  5  4  0
  3  6  4  0
  4 21  4  0
  4 29  4  0
  5 15  4  0
  5 28  1  0
  6 16  4  0
  7 18  4  0
  7 26  4  0
  8 18  1  0
  8 19  4  0
  8 22  4  0
  9 12  4  0
  9 19  4  0
 10 12  4  0
 10 22  4  0
 11 20  4  0
 11 21  4  0
 12 23  1  0
 13 20  4  0
 13 29  4  0
 14 17  4  0
 14 28  4  0
 15 25  2  0
 16 27  4  0
 17 18  4  0
 20 27  1  0
 24 27  4  0
 26 28  4  0
M  END
$$$$

 Created by Python create_sdf_string function

 29 33  0  0  0  0  0  0  0  0999 V2000
    8.8270   -7.0288   18.4251 C   0  0  0  0  0  0  0  0  0  0  0  0
    9.1576   -4.6236   15.8860 O   0  0  0  0  0  0  0  0  0  0  0  0
    9.1509   -5.9108   17.7177 C   0  0  0  0  0  0  0  0  0  0  0  0
    3.6373   -9.5349   16.0582 N   0  0  0  0  0  0  0  0  0  0  0  0
    9.9275   -4.8001   18.0438 N   0  0  0  0  0  0  0  0  0  0  0  0
    8.5908   -5.7425   16.4412 C   0  0  0  0  0  0  0  0  0  0  0  0
   10.5993   -4.8981   21.6068 C   0  0  0  0  0  0  0  0  0  0  0  0
   10.4258   -3.0106   23.0998 C   0  0  0  0  0  0  0  0  0  0  0  0
   10.2148   -3.4364   25.4200 C   0  0  0  0  0  0  0  0  0  0  0  0
    9.7853   -1.1840   24.4927 C   0  0  0  0  0  0  0  0  0  0  0  0
    5.0276   -8.5227   17.5352 C   0  0  0  0  0  0  0  0  0  0  0  0
    9.8187   -2.0895   25.5800 C   0  0  0  0  0  0  0  0  0  0  0  0
    5.6473   -8.7216   15.3158 C   0  0  0  0  0  0  0  0  0  0  0  0
   10.7581   -3.1233   19.4720 N   0  0  0  0  0  0  0  0  0  0  0  0
    9.9571   -4.0573   16.8866 C   0  0  0  0  0  0  0  0  0  0  0  0
    7.6213   -6.5618   16.0087 C   0  0  0  0  0  0  0  0  0  0  0  0
   10.8583   -2.6527   20.7222 C   0  0  0  0  0  0  0  0  0  0  0  0
   10.6412   -3.5089   21.7936 C   0  0  0  0  0  0  0  0  0  0  0  0
   10.4972   -3.8968   24.1589 C   0  0  0  0  0  0  0  0  0  0  0  0
    5.9260   -8.2736   16.5517 C   0  0  0  0  0  0  0  0  0  0  0  0
    3.8816   -9.1166   17.2493 C   0  0  0  0  0  0  0  0  0  0  0  0
   10.1297   -1.6575   23.2324 C   0  0  0  0  0  0  0  0  0  0  0  0
    9.4684   -1.6929   26.7263 F   0  0  0  0  0  0  0  0  0  0  0  0
    7.7963   -7.7906   17.9837 C   0  0  0  0  0  0  0  0  0  0  0  0
   10.5884   -3.0725   16.7902 O   0  0  0  0  0  0  0  0  0  0  0  0
   10.4323   -5.3494   20.3516 C   0  0  0  0  0  0  0  0  0  0  0  0
    7.1156   -7.5454   16.8218 C   0  0  0  0  0  0  0  0  0  0  0  0
   10.3885   -4.4388   19.2773 C   0  0  0  0  0  0  0  0  0  0  0  0
    4.5160   -9.3822   15.0841 C   0  0  0  0  0  0  0  0  0  0  0  0
  1  3  4  0
  1 24  4  0
  2  6  4  0
  2 15  4  0
  3  5  4  0
  3  6  4  0
  4 21  4  0
  4 29  4  0
  5 15  4  0
  5 28  1  0
  6 16  4  0
  7 18  4  0
  7 26  4  0
  8 18  1  0
  8 19  4  0
  8 22  4  0
  9 12  4  0
  9 19  4  0
 10 12  4  0
 10 22  4  0
 11 20  4  0
 11 21  4  0
 12 23  1  0
 13 20  4  0
 13 29  4  0
 14 17  4  0
 14 28  4  0
 15 25  2  0
 16 27  4  0
 17 18  4  0
 20 27  1  0
 24 27  4  0
 26 28  4  0
M  END
$$$$

 Created by Python create_sdf_string function

 29 33  0  0  0  0  0  0  0  0999 V2000
    8.8270   -7.0288   18.4251 C   0  0  0  0  0  0  0  0  0  0  0  0
    9.1576   -4.6236   15.8860 O   0  0  0  0  0  0  0  0  0  0  0  0
    9.1509   -5.9108   17.7177 C   0  0  0  0  0  0  0  0  0  0  0  0
    3.6373   -9.5349   16.0582 N   0  0  0  0  0  0  0  0  0  0  0  0
    9.9275   -4.8001   18.0438 N   0  0  0  0  0  0  0  0  0  0  0  0
    8.5908   -5.7425   16.4412 C   0  0  0  0  0  0  0  0  0  0  0  0
   10.5993   -4.8981   21.6068 C   0  0  0  0  0  0  0  0  0  0  0  0
   10.4258   -3.0106   23.0998 C   0  0  0  0  0  0  0  0  0  0  0  0
   10.2148   -3.4364   25.4200 C   0  0  0  0  0  0  0  0  0  0  0  0
    9.7853   -1.1840   24.4927 C   0  0  0  0  0  0  0  0  0  0  0  0
    5.0276   -8.5227   17.5352 C   0  0  0  0  0  0  0  0  0  0  0  0
    9.8187   -2.0895   25.5800 C   0  0  0  0  0  0  0  0  0  0  0  0
    5.6473   -8.7216   15.3158 C   0  0  0  0  0  0  0  0  0  0  0  0
   10.7581   -3.1233   19.4720 N   0  0  0  0  0  0  0  0  0  0  0  0
    9.9571   -4.0573   16.8866 C   0  0  0  0  0  0  0  0  0  0  0  0
    7.6213   -6.5618   16.0087 C   0  0  0  0  0  0  0  0  0  0  0  0
   10.8583   -2.6527   20.7222 C   0  0  0  0  0  0  0  0  0  0  0  0
   10.6412   -3.5089   21.7936 C   0  0  0  0  0  0  0  0  0  0  0  0
   10.4972   -3.8968   24.1589 C   0  0  0  0  0  0  0  0  0  0  0  0
    5.9260   -8.2736   16.5517 C   0  0  0  0  0  0  0  0  0  0  0  0
    3.8816   -9.1166   17.2493 C   0  0  0  0  0  0  0  0  0  0  0  0
   10.1297   -1.6575   23.2324 C   0  0  0  0  0  0  0  0  0  0  0  0
    9.4684   -1.6929   26.7263 F   0  0  0  0  0  0  0  0  0  0  0  0
    7.7963   -7.7906   17.9837 C   0  0  0  0  0  0  0  0  0  0  0  0
   10.5884   -3.0725   16.7902 O   0  0  0  0  0  0  0  0  0  0  0  0
   10.4323   -5.3494   20.3516 C   0  0  0  0  0  0  0  0  0  0  0  0
    7.1156   -7.5454   16.8218 C   0  0  0  0  0  0  0  0  0  0  0  0
   10.3885   -4.4388   19.2773 C   0  0  0  0  0  0  0  0  0  0  0  0
    4.5160   -9.3822   15.0841 C   0  0  0  0  0  0  0  0  0  0  0  0
  1  3  4  0
  1 24  4  0
  2  6  4  0
  2 15  4  0
  3  5  4  0
  3  6  4  0
  4 21  4  0
  4 29  4  0
  5 15  4  0
  5 28  1  0
  6 16  4  0
  7 18  4  0
  7 26  4  0
  8 18  1  0
  8 19  4  0
  8 22  4  0
  9 12  4  0
  9 19  4  0
 10 12  4  0
 10 22  4  0
 11 20  4  0
 11 21  4  0
 12 23  1  0
 13 20  4  0
 13 29  4  0
 14 17  4  0
 14 28  4  0
 15 25  2  0
 16 27  4  0
 17 18  4  0
 20 27  1  0
 24 27  4  0
 26 28  4  0
M  END
$$$$

 Created by Python create_sdf_string function

 29 33  0  0  0  0  0  0  0  0999 V2000
    8.8270   -7.0288   18.4251 C   0  0  0  0  0  0  0  0  0  0  0  0
    9.1576   -4.6236   15.8860 O   0  0  0  0  0  0  0  0  0  0  0  0
    9.1509   -5.9108   17.7177 C   0  0  0  0  0  0  0  0  0  0  0  0
    3.6373   -9.5349   16.0582 N   0  0  0  0  0  0  0  0  0  0  0  0
    9.9275   -4.8001   18.0438 N   0  0  0  0  0  0  0  0  0  0  0  0
    8.5908   -5.7425   16.4412 C   0  0  0  0  0  0  0  0  0  0  0  0
   10.5993   -4.8981   21.6068 C   0  0  0  0  0  0  0  0  0  0  0  0
   10.4258   -3.0106   23.0998 C   0  0  0  0  0  0  0  0  0  0  0  0
   10.2148   -3.4364   25.4200 C   0  0  0  0  0  0  0  0  0  0  0  0
    9.7853   -1.1840   24.4927 C   0  0  0  0  0  0  0  0  0  0  0  0
    5.0276   -8.5227   17.5352 C   0  0  0  0  0  0  0  0  0  0  0  0
    9.8187   -2.0895   25.5800 C   0  0  0  0  0  0  0  0  0  0  0  0
    5.6473   -8.7216   15.3158 C   0  0  0  0  0  0  0  0  0  0  0  0
   10.7581   -3.1233   19.4720 N   0  0  0  0  0  0  0  0  0  0  0  0
    9.9571   -4.0573   16.8866 C   0  0  0  0  0  0  0  0  0  0  0  0
    7.6213   -6.5618   16.0087 C   0  0  0  0  0  0  0  0  0  0  0  0
   10.8583   -2.6527   20.7222 C   0  0  0  0  0  0  0  0  0  0  0  0
   10.6412   -3.5089   21.7936 C   0  0  0  0  0  0  0  0  0  0  0  0
   10.4972   -3.8968   24.1589 C   0  0  0  0  0  0  0  0  0  0  0  0
    5.9260   -8.2736   16.5517 C   0  0  0  0  0  0  0  0  0  0  0  0
    3.8816   -9.1166   17.2493 C   0  0  0  0  0  0  0  0  0  0  0  0
   10.1297   -1.6575   23.2324 C   0  0  0  0  0  0  0  0  0  0  0  0
    9.4684   -1.6929   26.7263 F   0  0  0  0  0  0  0  0  0  0  0  0
    7.7963   -7.7906   17.9837 C   0  0  0  0  0  0  0  0  0  0  0  0
   10.5884   -3.0725   16.7902 O   0  0  0  0  0  0  0  0  0  0  0  0
   10.4323   -5.3494   20.3516 C   0  0  0  0  0  0  0  0  0  0  0  0
    7.1156   -7.5454   16.8218 C   0  0  0  0  0  0  0  0  0  0  0  0
   10.3885   -4.4388   19.2773 C   0  0  0  0  0  0  0  0  0  0  0  0
    4.5160   -9.3822   15.0841 C   0  0  0  0  0  0  0  0  0  0  0  0
  1  3  4  0
  1 24  4  0
  2  6  4  0
  2 15  4  0
  3  5  4  0
  3  6  4  0
  4 21  4  0
  4 29  4  0
  5 15  4  0
  5 28  1  0
  6 16  4  0
  7 18  4  0
  7 26  4  0
  8 18  1  0
  8 19  4  0
  8 22  4  0
  9 12  4  0
  9 19  4  0
 10 12  4  0
 10 22  4  0
 11 20  4  0
 11 21  4  0
 12 23  1  0
 13 20  4  0
 13 29  4  0
 14 17  4  0
 14 28  4  0
 15 25  2  0
 16 27  4  0
 17 18  4  0
 20 27  1  0
 24 27  4  0
 26 28  4  0
M  END
$$$$

 Created by Python create_sdf_string function

 29 33  0  0  0  0  0  0  0  0999 V2000
    8.8270   -7.0288   18.4251 C   0  0  0  0  0  0  0  0  0  0  0  0
    9.1576   -4.6236   15.8860 O   0  0  0  0  0  0  0  0  0  0  0  0
    9.1509   -5.9108   17.7177 C   0  0  0  0  0  0  0  0  0  0  0  0
    3.6373   -9.5349   16.0582 N   0  0  0  0  0  0  0  0  0  0  0  0
    9.9275   -4.8001   18.0438 N   0  0  0  0  0  0  0  0  0  0  0  0
    8.5908   -5.7425   16.4412 C   0  0  0  0  0  0  0  0  0  0  0  0
   10.5993   -4.8981   21.6068 C   0  0  0  0  0  0  0  0  0  0  0  0
   10.4258   -3.0106   23.0998 C   0  0  0  0  0  0  0  0  0  0  0  0
   10.2148   -3.4364   25.4200 C   0  0  0  0  0  0  0  0  0  0  0  0
    9.7853   -1.1840   24.4927 C   0  0  0  0  0  0  0  0  0  0  0  0
    5.0276   -8.5227   17.5352 C   0  0  0  0  0  0  0  0  0  0  0  0
    9.8187   -2.0895   25.5800 C   0  0  0  0  0  0  0  0  0  0  0  0
    5.6473   -8.7216   15.3158 C   0  0  0  0  0  0  0  0  0  0  0  0
   10.7581   -3.1233   19.4720 N   0  0  0  0  0  0  0  0  0  0  0  0
    9.9571   -4.0573   16.8866 C   0  0  0  0  0  0  0  0  0  0  0  0
    7.6213   -6.5618   16.0087 C   0  0  0  0  0  0  0  0  0  0  0  0
   10.8583   -2.6527   20.7222 C   0  0  0  0  0  0  0  0  0  0  0  0
   10.6412   -3.5089   21.7936 C   0  0  0  0  0  0  0  0  0  0  0  0
   10.4972   -3.8968   24.1589 C   0  0  0  0  0  0  0  0  0  0  0  0
    5.9260   -8.2736   16.5517 C   0  0  0  0  0  0  0  0  0  0  0  0
    3.8816   -9.1166   17.2493 C   0  0  0  0  0  0  0  0  0  0  0  0
   10.1297   -1.6575   23.2324 C   0  0  0  0  0  0  0  0  0  0  0  0
    9.4684   -1.6929   26.7263 F   0  0  0  0  0  0  0  0  0  0  0  0
    7.7963   -7.7906   17.9837 C   0  0  0  0  0  0  0  0  0  0  0  0
   10.5884   -3.0725   16.7902 O   0  0  0  0  0  0  0  0  0  0  0  0
   10.4323   -5.3494   20.3516 C   0  0  0  0  0  0  0  0  0  0  0  0
    7.1156   -7.5454   16.8218 C   0  0  0  0  0  0  0  0  0  0  0  0
   10.3885   -4.4388   19.2773 C   0  0  0  0  0  0  0  0  0  0  0  0
    4.5160   -9.3822   15.0841 C   0  0  0  0  0  0  0  0  0  0  0  0
  1  3  4  0
  1 24  4  0
  2  6  4  0
  2 15  4  0
  3  5  4  0
  3  6  4  0
  4 21  4  0
  4 29  4  0
  5 15  4  0
  5 28  1  0
  6 16  4  0
  7 18  4  0
  7 26  4  0
  8 18  1  0
  8 19  4  0
  8 22  4  0
  9 12  4  0
  9 19  4  0
 10 12  4  0
 10 22  4  0
 11 20  4  0
 11 21  4  0
 12 23  1  0
 13 20  4  0
 13 29  4  0
 14 17  4  0
 14 28  4  0
 15 25  2  0
 16 27  4  0
 17 18  4  0
 20 27  1  0
 24 27  4  0
 26 28  4  0
M  END
$$$$

 Created by Python create_sdf_string function

 29 33  0  0  0  0  0  0  0  0999 V2000
    8.8270   -7.0288   18.4251 C   0  0  0  0  0  0  0  0  0  0  0  0
    9.1576   -4.6236   15.8860 O   0  0  0  0  0  0  0  0  0  0  0  0
    9.1509   -5.9108   17.7177 C   0  0  0  0  0  0  0  0  0  0  0  0
    3.6373   -9.5349   16.0582 N   0  0  0  0  0  0  0  0  0  0  0  0
    9.9275   -4.8001   18.0438 N   0  0  0  0  0  0  0  0  0  0  0  0
    8.5908   -5.7425   16.4412 C   0  0  0  0  0  0  0  0  0  0  0  0
   10.5993   -4.8981   21.6068 C   0  0  0  0  0  0  0  0  0  0  0  0
   10.4258   -3.0106   23.0998 C   0  0  0  0  0  0  0  0  0  0  0  0
   10.2148   -3.4364   25.4200 C   0  0  0  0  0  0  0  0  0  0  0  0
    9.7853   -1.1840   24.4927 C   0  0  0  0  0  0  0  0  0  0  0  0
    5.0276   -8.5227   17.5352 C   0  0  0  0  0  0  0  0  0  0  0  0
    9.8187   -2.0895   25.5800 C   0  0  0  0  0  0  0  0  0  0  0  0
    5.6473   -8.7216   15.3158 C   0  0  0  0  0  0  0  0  0  0  0  0
   10.7581   -3.1233   19.4720 N   0  0  0  0  0  0  0  0  0  0  0  0
    9.9571   -4.0573   16.8866 C   0  0  0  0  0  0  0  0  0  0  0  0
    7.6213   -6.5618   16.0087 C   0  0  0  0  0  0  0  0  0  0  0  0
   10.8583   -2.6527   20.7222 C   0  0  0  0  0  0  0  0  0  0  0  0
   10.6412   -3.5089   21.7936 C   0  0  0  0  0  0  0  0  0  0  0  0
   10.4972   -3.8968   24.1589 C   0  0  0  0  0  0  0  0  0  0  0  0
    5.9260   -8.2736   16.5517 C   0  0  0  0  0  0  0  0  0  0  0  0
    3.8816   -9.1166   17.2493 C   0  0  0  0  0  0  0  0  0  0  0  0
   10.1297   -1.6575   23.2324 C   0  0  0  0  0  0  0  0  0  0  0  0
    9.4684   -1.6929   26.7263 F   0  0  0  0  0  0  0  0  0  0  0  0
    7.7963   -7.7906   17.9837 C   0  0  0  0  0  0  0  0  0  0  0  0
   10.5884   -3.0725   16.7902 O   0  0  0  0  0  0  0  0  0  0  0  0
   10.4323   -5.3494   20.3516 C   0  0  0  0  0  0  0  0  0  0  0  0
    7.1156   -7.5454   16.8218 C   0  0  0  0  0  0  0  0  0  0  0  0
   10.3885   -4.4388   19.2773 C   0  0  0  0  0  0  0  0  0  0  0  0
    4.5160   -9.3822   15.0841 C   0  0  0  0  0  0  0  0  0  0  0  0
  1  3  4  0
  1 24  4  0
  2  6  4  0
  2 15  4  0
  3  5  4  0
  3  6  4  0
  4 21  4  0
  4 29  4  0
  5 15  4  0
  5 28  1  0
  6 16  4  0
  7 18  4  0
  7 26  4  0
  8 18  1  0
  8 19  4  0
  8 22  4  0
  9 12  4  0
  9 19  4  0
 10 12  4  0
 10 22  4  0
 11 20  4  0
 11 21  4  0
 12 23  1  0
 13 20  4  0
 13 29  4  0
 14 17  4  0
 14 28  4  0
 15 25  2  0
 16 27  4  0
 17 18  4  0
 20 27  1  0
 24 27  4  0
 26 28  4  0
M  END
$$$$

 Created by Python create_sdf_string function

 29 33  0  0  0  0  0  0  0  0999 V2000
    8.8270   -7.0288   18.4251 C   0  0  0  0  0  0  0  0  0  0  0  0
    9.1576   -4.6236   15.8860 O   0  0  0  0  0  0  0  0  0  0  0  0
    9.1509   -5.9108   17.7177 C   0  0  0  0  0  0  0  0  0  0  0  0
    3.6373   -9.5349   16.0582 N   0  0  0  0  0  0  0  0  0  0  0  0
    9.9275   -4.8001   18.0438 N   0  0  0  0  0  0  0  0  0  0  0  0
    8.5908   -5.7425   16.4412 C   0  0  0  0  0  0  0  0  0  0  0  0
   10.5993   -4.8981   21.6068 C   0  0  0  0  0  0  0  0  0  0  0  0
   10.4258   -3.0106   23.0998 C   0  0  0  0  0  0  0  0  0  0  0  0
   10.2148   -3.4364   25.4200 C   0  0  0  0  0  0  0  0  0  0  0  0
    9.7853   -1.1840   24.4927 C   0  0  0  0  0  0  0  0  0  0  0  0
    5.0276   -8.5227   17.5352 C   0  0  0  0  0  0  0  0  0  0  0  0
    9.8187   -2.0895   25.5800 C   0  0  0  0  0  0  0  0  0  0  0  0
    5.6473   -8.7216   15.3158 C   0  0  0  0  0  0  0  0  0  0  0  0
   10.7581   -3.1233   19.4720 N   0  0  0  0  0  0  0  0  0  0  0  0
    9.9571   -4.0573   16.8866 C   0  0  0  0  0  0  0  0  0  0  0  0
    7.6213   -6.5618   16.0087 C   0  0  0  0  0  0  0  0  0  0  0  0
   10.8583   -2.6527   20.7222 C   0  0  0  0  0  0  0  0  0  0  0  0
   10.6412   -3.5089   21.7936 C   0  0  0  0  0  0  0  0  0  0  0  0
   10.4972   -3.8968   24.1589 C   0  0  0  0  0  0  0  0  0  0  0  0
    5.9260   -8.2736   16.5517 C   0  0  0  0  0  0  0  0  0  0  0  0
    3.8816   -9.1166   17.2493 C   0  0  0  0  0  0  0  0  0  0  0  0
   10.1297   -1.6575   23.2324 C   0  0  0  0  0  0  0  0  0  0  0  0
    9.4684   -1.6929   26.7263 F   0  0  0  0  0  0  0  0  0  0  0  0
    7.7963   -7.7906   17.9837 C   0  0  0  0  0  0  0  0  0  0  0  0
   10.5884   -3.0725   16.7902 O   0  0  0  0  0  0  0  0  0  0  0  0
   10.4323   -5.3494   20.3516 C   0  0  0  0  0  0  0  0  0  0  0  0
    7.1156   -7.5454   16.8218 C   0  0  0  0  0  0  0  0  0  0  0  0
   10.3885   -4.4388   19.2773 C   0  0  0  0  0  0  0  0  0  0  0  0
    4.5160   -9.3822   15.0841 C   0  0  0  0  0  0  0  0  0  0  0  0
  1  3  4  0
  1 24  4  0
  2  6  4  0
  2 15  4  0
  3  5  4  0
  3  6  4  0
  4 21  4  0
  4 29  4  0
  5 15  4  0
  5 28  1  0
  6 16  4  0
  7 18  4  0
  7 26  4  0
  8 18  1  0
  8 19  4  0
  8 22  4  0
  9 12  4  0
  9 19  4  0
 10 12  4  0
 10 22  4  0
 11 20  4  0
 11 21  4  0
 12 23  1  0
 13 20  4  0
 13 29  4  0
 14 17  4  0
 14 28  4  0
 15 25  2  0
 16 27  4  0
 17 18  4  0
 20 27  1  0
 24 27  4  0
 26 28  4  0
M  END
$$$$

 Created by Python create_sdf_string function

 29 33  0  0  0  0  0  0  0  0999 V2000
    8.8270   -7.0288   18.4251 C   0  0  0  0  0  0  0  0  0  0  0  0
    9.1576   -4.6236   15.8860 O   0  0  0  0  0  0  0  0  0  0  0  0
    9.1509   -5.9108   17.7177 C   0  0  0  0  0  0  0  0  0  0  0  0
    3.6373   -9.5349   16.0582 N   0  0  0  0  0  0  0  0  0  0  0  0
    9.9275   -4.8001   18.0438 N   0  0  0  0  0  0  0  0  0  0  0  0
    8.5908   -5.7425   16.4412 C   0  0  0  0  0  0  0  0  0  0  0  0
   10.5993   -4.8981   21.6068 C   0  0  0  0  0  0  0  0  0  0  0  0
   10.4258   -3.0106   23.0998 C   0  0  0  0  0  0  0  0  0  0  0  0
   10.2148   -3.4364   25.4200 C   0  0  0  0  0  0  0  0  0  0  0  0
    9.7853   -1.1840   24.4927 C   0  0  0  0  0  0  0  0  0  0  0  0
    5.0276   -8.5227   17.5352 C   0  0  0  0  0  0  0  0  0  0  0  0
    9.8187   -2.0895   25.5800 C   0  0  0  0  0  0  0  0  0  0  0  0
    5.6473   -8.7216   15.3158 C   0  0  0  0  0  0  0  0  0  0  0  0
   10.7581   -3.1233   19.4720 N   0  0  0  0  0  0  0  0  0  0  0  0
    9.9571   -4.0573   16.8866 C   0  0  0  0  0  0  0  0  0  0  0  0
    7.6213   -6.5618   16.0087 C   0  0  0  0  0  0  0  0  0  0  0  0
   10.8583   -2.6527   20.7222 C   0  0  0  0  0  0  0  0  0  0  0  0
   10.6412   -3.5089   21.7936 C   0  0  0  0  0  0  0  0  0  0  0  0
   10.4972   -3.8968   24.1589 C   0  0  0  0  0  0  0  0  0  0  0  0
    5.9260   -8.2736   16.5517 C   0  0  0  0  0  0  0  0  0  0  0  0
    3.8816   -9.1166   17.2493 C   0  0  0  0  0  0  0  0  0  0  0  0
   10.1297   -1.6575   23.2324 C   0  0  0  0  0  0  0  0  0  0  0  0
    9.4684   -1.6929   26.7263 F   0  0  0  0  0  0  0  0  0  0  0  0
    7.7963   -7.7906   17.9837 C   0  0  0  0  0  0  0  0  0  0  0  0
   10.5884   -3.0725   16.7902 O   0  0  0  0  0  0  0  0  0  0  0  0
   10.4323   -5.3494   20.3516 C   0  0  0  0  0  0  0  0  0  0  0  0
    7.1156   -7.5454   16.8218 C   0  0  0  0  0  0  0  0  0  0  0  0
   10.3885   -4.4388   19.2773 C   0  0  0  0  0  0  0  0  0  0  0  0
    4.5160   -9.3822   15.0841 C   0  0  0  0  0  0  0  0  0  0  0  0
  1  3  4  0
  1 24  4  0
  2  6  4  0
  2 15  4  0
  3  5  4  0
  3  6  4  0
  4 21  4  0
  4 29  4  0
  5 15  4  0
  5 28  1  0
  6 16  4  0
  7 18  4  0
  7 26  4  0
  8 18  1  0
  8 19  4  0
  8 22  4  0
  9 12  4  0
  9 19  4  0
 10 12  4  0
 10 22  4  0
 11 20  4  0
 11 21  4  0
 12 23  1  0
 13 20  4  0
 13 29  4  0
 14 17  4  0
 14 28  4  0
 15 25  2  0
 16 27  4  0
 17 18  4  0
 20 27  1  0
 24 27  4  0
 26 28  4  0
M  END
$$$$

 Created by Python create_sdf_string function

 29 33  0  0  0  0  0  0  0  0999 V2000
    8.8270   -7.0288   18.4251 C   0  0  0  0  0  0  0  0  0  0  0  0
    9.1576   -4.6236   15.8860 O   0  0  0  0  0  0  0  0  0  0  0  0
    9.1509   -5.9108   17.7177 C   0  0  0  0  0  0  0  0  0  0  0  0
    3.6373   -9.5349   16.0582 N   0  0  0  0  0  0  0  0  0  0  0  0
    9.9275   -4.8001   18.0438 N   0  0  0  0  0  0  0  0  0  0  0  0
    8.5908   -5.7425   16.4412 C   0  0  0  0  0  0  0  0  0  0  0  0
   10.5993   -4.8981   21.6068 C   0  0  0  0  0  0  0  0  0  0  0  0
   10.4258   -3.0106   23.0998 C   0  0  0  0  0  0  0  0  0  0  0  0
   10.2148   -3.4364   25.4200 C   0  0  0  0  0  0  0  0  0  0  0  0
    9.7853   -1.1840   24.4927 C   0  0  0  0  0  0  0  0  0  0  0  0
    5.0276   -8.5227   17.5352 C   0  0  0  0  0  0  0  0  0  0  0  0
    9.8187   -2.0895   25.5800 C   0  0  0  0  0  0  0  0  0  0  0  0
    5.6473   -8.7216   15.3158 C   0  0  0  0  0  0  0  0  0  0  0  0
   10.7581   -3.1233   19.4720 N   0  0  0  0  0  0  0  0  0  0  0  0
    9.9571   -4.0573   16.8866 C   0  0  0  0  0  0  0  0  0  0  0  0
    7.6213   -6.5618   16.0087 C   0  0  0  0  0  0  0  0  0  0  0  0
   10.8583   -2.6527   20.7222 C   0  0  0  0  0  0  0  0  0  0  0  0
   10.6412   -3.5089   21.7936 C   0  0  0  0  0  0  0  0  0  0  0  0
   10.4972   -3.8968   24.1589 C   0  0  0  0  0  0  0  0  0  0  0  0
    5.9260   -8.2736   16.5517 C   0  0  0  0  0  0  0  0  0  0  0  0
    3.8816   -9.1166   17.2493 C   0  0  0  0  0  0  0  0  0  0  0  0
   10.1297   -1.6575   23.2324 C   0  0  0  0  0  0  0  0  0  0  0  0
    9.4684   -1.6929   26.7263 F   0  0  0  0  0  0  0  0  0  0  0  0
    7.7963   -7.7906   17.9837 C   0  0  0  0  0  0  0  0  0  0  0  0
   10.5884   -3.0725   16.7902 O   0  0  0  0  0  0  0  0  0  0  0  0
   10.4323   -5.3494   20.3516 C   0  0  0  0  0  0  0  0  0  0  0  0
    7.1156   -7.5454   16.8218 C   0  0  0  0  0  0  0  0  0  0  0  0
   10.3885   -4.4388   19.2773 C   0  0  0  0  0  0  0  0  0  0  0  0
    4.5160   -9.3822   15.0841 C   0  0  0  0  0  0  0  0  0  0  0  0
  1  3  4  0
  1 24  4  0
  2  6  4  0
  2 15  4  0
  3  5  4  0
  3  6  4  0
  4 21  4  0
  4 29  4  0
  5 15  4  0
  5 28  1  0
  6 16  4  0
  7 18  4  0
  7 26  4  0
  8 18  1  0
  8 19  4  0
  8 22  4  0
  9 12  4  0
  9 19  4  0
 10 12  4  0
 10 22  4  0
 11 20  4  0
 11 21  4  0
 12 23  1  0
 13 20  4  0
 13 29  4  0
 14 17  4  0
 14 28  4  0
 15 25  2  0
 16 27  4  0
 17 18  4  0
 20 27  1  0
 24 27  4  0
 26 28  4  0
M  END
$$$$

 Created by Python create_sdf_string function

 29 33  0  0  0  0  0  0  0  0999 V2000
    8.8270   -7.0288   18.4251 C   0  0  0  0  0  0  0  0  0  0  0  0
    9.1576   -4.6236   15.8860 O   0  0  0  0  0  0  0  0  0  0  0  0
    9.1509   -5.9108   17.7177 C   0  0  0  0  0  0  0  0  0  0  0  0
    3.6373   -9.5349   16.0582 N   0  0  0  0  0  0  0  0  0  0  0  0
    9.9275   -4.8001   18.0438 N   0  0  0  0  0  0  0  0  0  0  0  0
    8.5908   -5.7425   16.4412 C   0  0  0  0  0  0  0  0  0  0  0  0
   10.5993   -4.8981   21.6068 C   0  0  0  0  0  0  0  0  0  0  0  0
   10.4258   -3.0106   23.0998 C   0  0  0  0  0  0  0  0  0  0  0  0
   10.2148   -3.4364   25.4200 C   0  0  0  0  0  0  0  0  0  0  0  0
    9.7853   -1.1840   24.4927 C   0  0  0  0  0  0  0  0  0  0  0  0
    5.0276   -8.5227   17.5352 C   0  0  0  0  0  0  0  0  0  0  0  0
    9.8187   -2.0895   25.5800 C   0  0  0  0  0  0  0  0  0  0  0  0
    5.6473   -8.7216   15.3158 C   0  0  0  0  0  0  0  0  0  0  0  0
   10.7581   -3.1233   19.4720 N   0  0  0  0  0  0  0  0  0  0  0  0
    9.9571   -4.0573   16.8866 C   0  0  0  0  0  0  0  0  0  0  0  0
    7.6213   -6.5618   16.0087 C   0  0  0  0  0  0  0  0  0  0  0  0
   10.8583   -2.6527   20.7222 C   0  0  0  0  0  0  0  0  0  0  0  0
   10.6412   -3.5089   21.7936 C   0  0  0  0  0  0  0  0  0  0  0  0
   10.4972   -3.8968   24.1589 C   0  0  0  0  0  0  0  0  0  0  0  0
    5.9260   -8.2736   16.5517 C   0  0  0  0  0  0  0  0  0  0  0  0
    3.8816   -9.1166   17.2493 C   0  0  0  0  0  0  0  0  0  0  0  0
   10.1297   -1.6575   23.2324 C   0  0  0  0  0  0  0  0  0  0  0  0
    9.4684   -1.6929   26.7263 F   0  0  0  0  0  0  0  0  0  0  0  0
    7.7963   -7.7906   17.9837 C   0  0  0  0  0  0  0  0  0  0  0  0
   10.5884   -3.0725   16.7902 O   0  0  0  0  0  0  0  0  0  0  0  0
   10.4323   -5.3494   20.3516 C   0  0  0  0  0  0  0  0  0  0  0  0
    7.1156   -7.5454   16.8218 C   0  0  0  0  0  0  0  0  0  0  0  0
   10.3885   -4.4388   19.2773 C   0  0  0  0  0  0  0  0  0  0  0  0
    4.5160   -9.3822   15.0841 C   0  0  0  0  0  0  0  0  0  0  0  0
  1  3  4  0
  1 24  4  0
  2  6  4  0
  2 15  4  0
  3  5  4  0
  3  6  4  0
  4 21  4  0
  4 29  4  0
  5 15  4  0
  5 28  1  0
  6 16  4  0
  7 18  4  0
  7 26  4  0
  8 18  1  0
  8 19  4  0
  8 22  4  0
  9 12  4  0
  9 19  4  0
 10 12  4  0
 10 22  4  0
 11 20  4  0
 11 21  4  0
 12 23  1  0
 13 20  4  0
 13 29  4  0
 14 17  4  0
 14 28  4  0
 15 25  2  0
 16 27  4  0
 17 18  4  0
 20 27  1  0
 24 27  4  0
 26 28  4  0
M  END
$$$$

 Created by Python create_sdf_string function

 29 33  0  0  0  0  0  0  0  0999 V2000
    8.8270   -7.0288   18.4251 C   0  0  0  0  0  0  0  0  0  0  0  0
    9.1576   -4.6236   15.8860 O   0  0  0  0  0  0  0  0  0  0  0  0
    9.1509   -5.9108   17.7177 C   0  0  0  0  0  0  0  0  0  0  0  0
    3.6373   -9.5349   16.0582 N   0  0  0  0  0  0  0  0  0  0  0  0
    9.9275   -4.8001   18.0438 N   0  0  0  0  0  0  0  0  0  0  0  0
    8.5908   -5.7425   16.4412 C   0  0  0  0  0  0  0  0  0  0  0  0
   10.5993   -4.8981   21.6068 C   0  0  0  0  0  0  0  0  0  0  0  0
   10.4258   -3.0106   23.0998 C   0  0  0  0  0  0  0  0  0  0  0  0
   10.2148   -3.4364   25.4200 C   0  0  0  0  0  0  0  0  0  0  0  0
    9.7853   -1.1840   24.4927 C   0  0  0  0  0  0  0  0  0  0  0  0
    5.0276   -8.5227   17.5352 C   0  0  0  0  0  0  0  0  0  0  0  0
    9.8187   -2.0895   25.5800 C   0  0  0  0  0  0  0  0  0  0  0  0
    5.6473   -8.7216   15.3158 C   0  0  0  0  0  0  0  0  0  0  0  0
   10.7581   -3.1233   19.4720 N   0  0  0  0  0  0  0  0  0  0  0  0
    9.9571   -4.0573   16.8866 C   0  0  0  0  0  0  0  0  0  0  0  0
    7.6213   -6.5618   16.0087 C   0  0  0  0  0  0  0  0  0  0  0  0
   10.8583   -2.6527   20.7222 C   0  0  0  0  0  0  0  0  0  0  0  0
   10.6412   -3.5089   21.7936 C   0  0  0  0  0  0  0  0  0  0  0  0
   10.4972   -3.8968   24.1589 C   0  0  0  0  0  0  0  0  0  0  0  0
    5.9260   -8.2736   16.5517 C   0  0  0  0  0  0  0  0  0  0  0  0
    3.8816   -9.1166   17.2493 C   0  0  0  0  0  0  0  0  0  0  0  0
   10.1297   -1.6575   23.2324 C   0  0  0  0  0  0  0  0  0  0  0  0
    9.4684   -1.6929   26.7263 F   0  0  0  0  0  0  0  0  0  0  0  0
    7.7963   -7.7906   17.9837 C   0  0  0  0  0  0  0  0  0  0  0  0
   10.5884   -3.0725   16.7902 O   0  0  0  0  0  0  0  0  0  0  0  0
   10.4323   -5.3494   20.3516 C   0  0  0  0  0  0  0  0  0  0  0  0
    7.1156   -7.5454   16.8218 C   0  0  0  0  0  0  0  0  0  0  0  0
   10.3885   -4.4388   19.2773 C   0  0  0  0  0  0  0  0  0  0  0  0
    4.5160   -9.3822   15.0841 C   0  0  0  0  0  0  0  0  0  0  0  0
  1  3  4  0
  1 24  4  0
  2  6  4  0
  2 15  4  0
  3  5  4  0
  3  6  4  0
  4 21  4  0
  4 29  4  0
  5 15  4  0
  5 28  1  0
  6 16  4  0
  7 18  4  0
  7 26  4  0
  8 18  1  0
  8 19  4  0
  8 22  4  0
  9 12  4  0
  9 19  4  0
 10 12  4  0
 10 22  4  0
 11 20  4  0
 11 21  4  0
 12 23  1  0
 13 20  4  0
 13 29  4  0
 14 17  4  0
 14 28  4  0
 15 25  2  0
 16 27  4  0
 17 18  4  0
 20 27  1  0
 24 27  4  0
 26 28  4  0
M  END
$$$$

 Created by Python create_sdf_string function

 29 33  0  0  0  0  0  0  0  0999 V2000
    8.8270   -7.0288   18.4251 C   0  0  0  0  0  0  0  0  0  0  0  0
    9.1576   -4.6236   15.8860 O   0  0  0  0  0  0  0  0  0  0  0  0
    9.1509   -5.9108   17.7177 C   0  0  0  0  0  0  0  0  0  0  0  0
    3.6373   -9.5349   16.0582 N   0  0  0  0  0  0  0  0  0  0  0  0
    9.9275   -4.8001   18.0438 N   0  0  0  0  0  0  0  0  0  0  0  0
    8.5908   -5.7425   16.4412 C   0  0  0  0  0  0  0  0  0  0  0  0
   10.5993   -4.8981   21.6068 C   0  0  0  0  0  0  0  0  0  0  0  0
   10.4258   -3.0106   23.0998 C   0  0  0  0  0  0  0  0  0  0  0  0
   10.2148   -3.4364   25.4200 C   0  0  0  0  0  0  0  0  0  0  0  0
    9.7853   -1.1840   24.4927 C   0  0  0  0  0  0  0  0  0  0  0  0
    5.0276   -8.5227   17.5352 C   0  0  0  0  0  0  0  0  0  0  0  0
    9.8187   -2.0895   25.5800 C   0  0  0  0  0  0  0  0  0  0  0  0
    5.6473   -8.7216   15.3158 C   0  0  0  0  0  0  0  0  0  0  0  0
   10.7581   -3.1233   19.4720 N   0  0  0  0  0  0  0  0  0  0  0  0
    9.9571   -4.0573   16.8866 C   0  0  0  0  0  0  0  0  0  0  0  0
    7.6213   -6.5618   16.0087 C   0  0  0  0  0  0  0  0  0  0  0  0
   10.8583   -2.6527   20.7222 C   0  0  0  0  0  0  0  0  0  0  0  0
   10.6412   -3.5089   21.7936 C   0  0  0  0  0  0  0  0  0  0  0  0
   10.4972   -3.8968   24.1589 C   0  0  0  0  0  0  0  0  0  0  0  0
    5.9260   -8.2736   16.5517 C   0  0  0  0  0  0  0  0  0  0  0  0
    3.8816   -9.1166   17.2493 C   0  0  0  0  0  0  0  0  0  0  0  0
   10.1297   -1.6575   23.2324 C   0  0  0  0  0  0  0  0  0  0  0  0
    9.4684   -1.6929   26.7263 F   0  0  0  0  0  0  0  0  0  0  0  0
    7.7963   -7.7906   17.9837 C   0  0  0  0  0  0  0  0  0  0  0  0
   10.5884   -3.0725   16.7902 O   0  0  0  0  0  0  0  0  0  0  0  0
   10.4323   -5.3494   20.3516 C   0  0  0  0  0  0  0  0  0  0  0  0
    7.1156   -7.5454   16.8218 C   0  0  0  0  0  0  0  0  0  0  0  0
   10.3885   -4.4388   19.2773 C   0  0  0  0  0  0  0  0  0  0  0  0
    4.5160   -9.3822   15.0841 C   0  0  0  0  0  0  0  0  0  0  0  0
  1  3  4  0
  1 24  4  0
  2  6  4  0
  2 15  4  0
  3  5  4  0
  3  6  4  0
  4 21  4  0
  4 29  4  0
  5 15  4  0
  5 28  1  0
  6 16  4  0
  7 18  4  0
  7 26  4  0
  8 18  1  0
  8 19  4  0
  8 22  4  0
  9 12  4  0
  9 19  4  0
 10 12  4  0
 10 22  4  0
 11 20  4  0
 11 21  4  0
 12 23  1  0
 13 20  4  0
 13 29  4  0
 14 17  4  0
 14 28  4  0
 15 25  2  0
 16 27  4  0
 17 18  4  0
 20 27  1  0
 24 27  4  0
 26 28  4  0
M  END
$$$$

 Created by Python create_sdf_string function

 29 33  0  0  0  0  0  0  0  0999 V2000
    8.8270   -7.0288   18.4251 C   0  0  0  0  0  0  0  0  0  0  0  0
    9.1576   -4.6236   15.8860 O   0  0  0  0  0  0  0  0  0  0  0  0
    9.1509   -5.9108   17.7177 C   0  0  0  0  0  0  0  0  0  0  0  0
    3.6373   -9.5349   16.0582 N   0  0  0  0  0  0  0  0  0  0  0  0
    9.9275   -4.8001   18.0438 N   0  0  0  0  0  0  0  0  0  0  0  0
    8.5908   -5.7425   16.4412 C   0  0  0  0  0  0  0  0  0  0  0  0
   10.5993   -4.8981   21.6068 C   0  0  0  0  0  0  0  0  0  0  0  0
   10.4258   -3.0106   23.0998 C   0  0  0  0  0  0  0  0  0  0  0  0
   10.2148   -3.4364   25.4200 C   0  0  0  0  0  0  0  0  0  0  0  0
    9.7853   -1.1840   24.4927 C   0  0  0  0  0  0  0  0  0  0  0  0
    5.0276   -8.5227   17.5352 C   0  0  0  0  0  0  0  0  0  0  0  0
    9.8187   -2.0895   25.5800 C   0  0  0  0  0  0  0  0  0  0  0  0
    5.6473   -8.7216   15.3158 C   0  0  0  0  0  0  0  0  0  0  0  0
   10.7581   -3.1233   19.4720 N   0  0  0  0  0  0  0  0  0  0  0  0
    9.9571   -4.0573   16.8866 C   0  0  0  0  0  0  0  0  0  0  0  0
    7.6213   -6.5618   16.0087 C   0  0  0  0  0  0  0  0  0  0  0  0
   10.8583   -2.6527   20.7222 C   0  0  0  0  0  0  0  0  0  0  0  0
   10.6412   -3.5089   21.7936 C   0  0  0  0  0  0  0  0  0  0  0  0
   10.4972   -3.8968   24.1589 C   0  0  0  0  0  0  0  0  0  0  0  0
    5.9260   -8.2736   16.5517 C   0  0  0  0  0  0  0  0  0  0  0  0
    3.8816   -9.1166   17.2493 C   0  0  0  0  0  0  0  0  0  0  0  0
   10.1297   -1.6575   23.2324 C   0  0  0  0  0  0  0  0  0  0  0  0
    9.4684   -1.6929   26.7263 F   0  0  0  0  0  0  0  0  0  0  0  0
    7.7963   -7.7906   17.9837 C   0  0  0  0  0  0  0  0  0  0  0  0
   10.5884   -3.0725   16.7902 O   0  0  0  0  0  0  0  0  0  0  0  0
   10.4323   -5.3494   20.3516 C   0  0  0  0  0  0  0  0  0  0  0  0
    7.1156   -7.5454   16.8218 C   0  0  0  0  0  0  0  0  0  0  0  0
   10.3885   -4.4388   19.2773 C   0  0  0  0  0  0  0  0  0  0  0  0
    4.5160   -9.3822   15.0841 C   0  0  0  0  0  0  0  0  0  0  0  0
  1  3  4  0
  1 24  4  0
  2  6  4  0
  2 15  4  0
  3  5  4  0
  3  6  4  0
  4 21  4  0
  4 29  4  0
  5 15  4  0
  5 28  1  0
  6 16  4  0
  7 18  4  0
  7 26  4  0
  8 18  1  0
  8 19  4  0
  8 22  4  0
  9 12  4  0
  9 19  4  0
 10 12  4  0
 10 22  4  0
 11 20  4  0
 11 21  4  0
 12 23  1  0
 13 20  4  0
 13 29  4  0
 14 17  4  0
 14 28  4  0
 15 25  2  0
 16 27  4  0
 17 18  4  0
 20 27  1  0
 24 27  4  0
 26 28  4  0
M  END
$$$$

 Created by Python create_sdf_string function

 29 33  0  0  0  0  0  0  0  0999 V2000
    8.8270   -7.0288   18.4251 C   0  0  0  0  0  0  0  0  0  0  0  0
    9.1576   -4.6236   15.8860 O   0  0  0  0  0  0  0  0  0  0  0  0
    9.1509   -5.9108   17.7177 C   0  0  0  0  0  0  0  0  0  0  0  0
    3.6373   -9.5349   16.0582 N   0  0  0  0  0  0  0  0  0  0  0  0
    9.9275   -4.8001   18.0438 N   0  0  0  0  0  0  0  0  0  0  0  0
    8.5908   -5.7425   16.4412 C   0  0  0  0  0  0  0  0  0  0  0  0
   10.5993   -4.8981   21.6068 C   0  0  0  0  0  0  0  0  0  0  0  0
   10.4258   -3.0106   23.0998 C   0  0  0  0  0  0  0  0  0  0  0  0
   10.2148   -3.4364   25.4200 C   0  0  0  0  0  0  0  0  0  0  0  0
    9.7853   -1.1840   24.4927 C   0  0  0  0  0  0  0  0  0  0  0  0
    5.0276   -8.5227   17.5352 C   0  0  0  0  0  0  0  0  0  0  0  0
    9.8187   -2.0895   25.5800 C   0  0  0  0  0  0  0  0  0  0  0  0
    5.6473   -8.7216   15.3158 C   0  0  0  0  0  0  0  0  0  0  0  0
   10.7581   -3.1233   19.4720 N   0  0  0  0  0  0  0  0  0  0  0  0
    9.9571   -4.0573   16.8866 C   0  0  0  0  0  0  0  0  0  0  0  0
    7.6213   -6.5618   16.0087 C   0  0  0  0  0  0  0  0  0  0  0  0
   10.8583   -2.6527   20.7222 C   0  0  0  0  0  0  0  0  0  0  0  0
   10.6412   -3.5089   21.7936 C   0  0  0  0  0  0  0  0  0  0  0  0
   10.4972   -3.8968   24.1589 C   0  0  0  0  0  0  0  0  0  0  0  0
    5.9260   -8.2736   16.5517 C   0  0  0  0  0  0  0  0  0  0  0  0
    3.8816   -9.1166   17.2493 C   0  0  0  0  0  0  0  0  0  0  0  0
   10.1297   -1.6575   23.2324 C   0  0  0  0  0  0  0  0  0  0  0  0
    9.4684   -1.6929   26.7263 F   0  0  0  0  0  0  0  0  0  0  0  0
    7.7963   -7.7906   17.9837 C   0  0  0  0  0  0  0  0  0  0  0  0
   10.5884   -3.0725   16.7902 O   0  0  0  0  0  0  0  0  0  0  0  0
   10.4323   -5.3494   20.3516 C   0  0  0  0  0  0  0  0  0  0  0  0
    7.1156   -7.5454   16.8218 C   0  0  0  0  0  0  0  0  0  0  0  0
   10.3885   -4.4388   19.2773 C   0  0  0  0  0  0  0  0  0  0  0  0
    4.5160   -9.3822   15.0841 C   0  0  0  0  0  0  0  0  0  0  0  0
  1  3  4  0
  1 24  4  0
  2  6  4  0
  2 15  4  0
  3  5  4  0
  3  6  4  0
  4 21  4  0
  4 29  4  0
  5 15  4  0
  5 28  1  0
  6 16  4  0
  7 18  4  0
  7 26  4  0
  8 18  1  0
  8 19  4  0
  8 22  4  0
  9 12  4  0
  9 19  4  0
 10 12  4  0
 10 22  4  0
 11 20  4  0
 11 21  4  0
 12 23  1  0
 13 20  4  0
 13 29  4  0
 14 17  4  0
 14 28  4  0
 15 25  2  0
 16 27  4  0
 17 18  4  0
 20 27  1  0
 24 27  4  0
 26 28  4  0
M  END
$$$$

 Created by Python create_sdf_string function

 29 33  0  0  0  0  0  0  0  0999 V2000
    8.8270   -7.0288   18.4251 C   0  0  0  0  0  0  0  0  0  0  0  0
    9.1576   -4.6236   15.8860 O   0  0  0  0  0  0  0  0  0  0  0  0
    9.1509   -5.9108   17.7177 C   0  0  0  0  0  0  0  0  0  0  0  0
    3.6373   -9.5349   16.0582 N   0  0  0  0  0  0  0  0  0  0  0  0
    9.9275   -4.8001   18.0438 N   0  0  0  0  0  0  0  0  0  0  0  0
    8.5908   -5.7425   16.4412 C   0  0  0  0  0  0  0  0  0  0  0  0
   10.5993   -4.8981   21.6068 C   0  0  0  0  0  0  0  0  0  0  0  0
   10.4258   -3.0106   23.0998 C   0  0  0  0  0  0  0  0  0  0  0  0
   10.2148   -3.4364   25.4200 C   0  0  0  0  0  0  0  0  0  0  0  0
    9.7853   -1.1840   24.4927 C   0  0  0  0  0  0  0  0  0  0  0  0
    5.0276   -8.5227   17.5352 C   0  0  0  0  0  0  0  0  0  0  0  0
    9.8187   -2.0895   25.5800 C   0  0  0  0  0  0  0  0  0  0  0  0
    5.6473   -8.7216   15.3158 C   0  0  0  0  0  0  0  0  0  0  0  0
   10.7581   -3.1233   19.4720 N   0  0  0  0  0  0  0  0  0  0  0  0
    9.9571   -4.0573   16.8866 C   0  0  0  0  0  0  0  0  0  0  0  0
    7.6213   -6.5618   16.0087 C   0  0  0  0  0  0  0  0  0  0  0  0
   10.8583   -2.6527   20.7222 C   0  0  0  0  0  0  0  0  0  0  0  0
   10.6412   -3.5089   21.7936 C   0  0  0  0  0  0  0  0  0  0  0  0
   10.4972   -3.8968   24.1589 C   0  0  0  0  0  0  0  0  0  0  0  0
    5.9260   -8.2736   16.5517 C   0  0  0  0  0  0  0  0  0  0  0  0
    3.8816   -9.1166   17.2493 C   0  0  0  0  0  0  0  0  0  0  0  0
   10.1297   -1.6575   23.2324 C   0  0  0  0  0  0  0  0  0  0  0  0
    9.4684   -1.6929   26.7263 F   0  0  0  0  0  0  0  0  0  0  0  0
    7.7963   -7.7906   17.9837 C   0  0  0  0  0  0  0  0  0  0  0  0
   10.5884   -3.0725   16.7902 O   0  0  0  0  0  0  0  0  0  0  0  0
   10.4323   -5.3494   20.3516 C   0  0  0  0  0  0  0  0  0  0  0  0
    7.1156   -7.5454   16.8218 C   0  0  0  0  0  0  0  0  0  0  0  0
   10.3885   -4.4388   19.2773 C   0  0  0  0  0  0  0  0  0  0  0  0
    4.5160   -9.3822   15.0841 C   0  0  0  0  0  0  0  0  0  0  0  0
  1  3  4  0
  1 24  4  0
  2  6  4  0
  2 15  4  0
  3  5  4  0
  3  6  4  0
  4 21  4  0
  4 29  4  0
  5 15  4  0
  5 28  1  0
  6 16  4  0
  7 18  4  0
  7 26  4  0
  8 18  1  0
  8 19  4  0
  8 22  4  0
  9 12  4  0
  9 19  4  0
 10 12  4  0
 10 22  4  0
 11 20  4  0
 11 21  4  0
 12 23  1  0
 13 20  4  0
 13 29  4  0
 14 17  4  0
 14 28  4  0
 15 25  2  0
 16 27  4  0
 17 18  4  0
 20 27  1  0
 24 27  4  0
 26 28  4  0
M  END
$$$$

 Created by Python create_sdf_string function

 29 33  0  0  0  0  0  0  0  0999 V2000
    8.8270   -7.0288   18.4251 C   0  0  0  0  0  0  0  0  0  0  0  0
    9.1576   -4.6236   15.8860 O   0  0  0  0  0  0  0  0  0  0  0  0
    9.1509   -5.9108   17.7177 C   0  0  0  0  0  0  0  0  0  0  0  0
    3.6373   -9.5349   16.0582 N   0  0  0  0  0  0  0  0  0  0  0  0
    9.9275   -4.8001   18.0438 N   0  0  0  0  0  0  0  0  0  0  0  0
    8.5908   -5.7425   16.4412 C   0  0  0  0  0  0  0  0  0  0  0  0
   10.5993   -4.8981   21.6068 C   0  0  0  0  0  0  0  0  0  0  0  0
   10.4258   -3.0106   23.0998 C   0  0  0  0  0  0  0  0  0  0  0  0
   10.2148   -3.4364   25.4200 C   0  0  0  0  0  0  0  0  0  0  0  0
    9.7853   -1.1840   24.4927 C   0  0  0  0  0  0  0  0  0  0  0  0
    5.0276   -8.5227   17.5352 C   0  0  0  0  0  0  0  0  0  0  0  0
    9.8187   -2.0895   25.5800 C   0  0  0  0  0  0  0  0  0  0  0  0
    5.6473   -8.7216   15.3158 C   0  0  0  0  0  0  0  0  0  0  0  0
   10.7581   -3.1233   19.4720 N   0  0  0  0  0  0  0  0  0  0  0  0
    9.9571   -4.0573   16.8866 C   0  0  0  0  0  0  0  0  0  0  0  0
    7.6213   -6.5618   16.0087 C   0  0  0  0  0  0  0  0  0  0  0  0
   10.8583   -2.6527   20.7222 C   0  0  0  0  0  0  0  0  0  0  0  0
   10.6412   -3.5089   21.7936 C   0  0  0  0  0  0  0  0  0  0  0  0
   10.4972   -3.8968   24.1589 C   0  0  0  0  0  0  0  0  0  0  0  0
    5.9260   -8.2736   16.5517 C   0  0  0  0  0  0  0  0  0  0  0  0
    3.8816   -9.1166   17.2493 C   0  0  0  0  0  0  0  0  0  0  0  0
   10.1297   -1.6575   23.2324 C   0  0  0  0  0  0  0  0  0  0  0  0
    9.4684   -1.6929   26.7263 F   0  0  0  0  0  0  0  0  0  0  0  0
    7.7963   -7.7906   17.9837 C   0  0  0  0  0  0  0  0  0  0  0  0
   10.5884   -3.0725   16.7902 O   0  0  0  0  0  0  0  0  0  0  0  0
   10.4323   -5.3494   20.3516 C   0  0  0  0  0  0  0  0  0  0  0  0
    7.1156   -7.5454   16.8218 C   0  0  0  0  0  0  0  0  0  0  0  0
   10.3885   -4.4388   19.2773 C   0  0  0  0  0  0  0  0  0  0  0  0
    4.5160   -9.3822   15.0841 C   0  0  0  0  0  0  0  0  0  0  0  0
  1  3  4  0
  1 24  4  0
  2  6  4  0
  2 15  4  0
  3  5  4  0
  3  6  4  0
  4 21  4  0
  4 29  4  0
  5 15  4  0
  5 28  1  0
  6 16  4  0
  7 18  4  0
  7 26  4  0
  8 18  1  0
  8 19  4  0
  8 22  4  0
  9 12  4  0
  9 19  4  0
 10 12  4  0
 10 22  4  0
 11 20  4  0
 11 21  4  0
 12 23  1  0
 13 20  4  0
 13 29  4  0
 14 17  4  0
 14 28  4  0
 15 25  2  0
 16 27  4  0
 17 18  4  0
 20 27  1  0
 24 27  4  0
 26 28  4  0
M  END
$$$$

 Created by Python create_sdf_string function

 29 33  0  0  0  0  0  0  0  0999 V2000
    8.8270   -7.0288   18.4251 C   0  0  0  0  0  0  0  0  0  0  0  0
    9.1576   -4.6236   15.8860 O   0  0  0  0  0  0  0  0  0  0  0  0
    9.1509   -5.9108   17.7177 C   0  0  0  0  0  0  0  0  0  0  0  0
    3.6373   -9.5349   16.0582 N   0  0  0  0  0  0  0  0  0  0  0  0
    9.9275   -4.8001   18.0438 N   0  0  0  0  0  0  0  0  0  0  0  0
    8.5908   -5.7425   16.4412 C   0  0  0  0  0  0  0  0  0  0  0  0
   10.5993   -4.8981   21.6068 C   0  0  0  0  0  0  0  0  0  0  0  0
   10.4258   -3.0106   23.0998 C   0  0  0  0  0  0  0  0  0  0  0  0
   10.2148   -3.4364   25.4200 C   0  0  0  0  0  0  0  0  0  0  0  0
    9.7853   -1.1840   24.4927 C   0  0  0  0  0  0  0  0  0  0  0  0
    5.0276   -8.5227   17.5352 C   0  0  0  0  0  0  0  0  0  0  0  0
    9.8187   -2.0895   25.5800 C   0  0  0  0  0  0  0  0  0  0  0  0
    5.6473   -8.7216   15.3158 C   0  0  0  0  0  0  0  0  0  0  0  0
   10.7581   -3.1233   19.4720 N   0  0  0  0  0  0  0  0  0  0  0  0
    9.9571   -4.0573   16.8866 C   0  0  0  0  0  0  0  0  0  0  0  0
    7.6213   -6.5618   16.0087 C   0  0  0  0  0  0  0  0  0  0  0  0
   10.8583   -2.6527   20.7222 C   0  0  0  0  0  0  0  0  0  0  0  0
   10.6412   -3.5089   21.7936 C   0  0  0  0  0  0  0  0  0  0  0  0
   10.4972   -3.8968   24.1589 C   0  0  0  0  0  0  0  0  0  0  0  0
    5.9260   -8.2736   16.5517 C   0  0  0  0  0  0  0  0  0  0  0  0
    3.8816   -9.1166   17.2493 C   0  0  0  0  0  0  0  0  0  0  0  0
   10.1297   -1.6575   23.2324 C   0  0  0  0  0  0  0  0  0  0  0  0
    9.4684   -1.6929   26.7263 F   0  0  0  0  0  0  0  0  0  0  0  0
    7.7963   -7.7906   17.9837 C   0  0  0  0  0  0  0  0  0  0  0  0
   10.5884   -3.0725   16.7902 O   0  0  0  0  0  0  0  0  0  0  0  0
   10.4323   -5.3494   20.3516 C   0  0  0  0  0  0  0  0  0  0  0  0
    7.1156   -7.5454   16.8218 C   0  0  0  0  0  0  0  0  0  0  0  0
   10.3885   -4.4388   19.2773 C   0  0  0  0  0  0  0  0  0  0  0  0
    4.5160   -9.3822   15.0841 C   0  0  0  0  0  0  0  0  0  0  0  0
  1  3  4  0
  1 24  4  0
  2  6  4  0
  2 15  4  0
  3  5  4  0
  3  6  4  0
  4 21  4  0
  4 29  4  0
  5 15  4  0
  5 28  1  0
  6 16  4  0
  7 18  4  0
  7 26  4  0
  8 18  1  0
  8 19  4  0
  8 22  4  0
  9 12  4  0
  9 19  4  0
 10 12  4  0
 10 22  4  0
 11 20  4  0
 11 21  4  0
 12 23  1  0
 13 20  4  0
 13 29  4  0
 14 17  4  0
 14 28  4  0
 15 25  2  0
 16 27  4  0
 17 18  4  0
 20 27  1  0
 24 27  4  0
 26 28  4  0
M  END
$$$$

 Created by Python create_sdf_string function

 29 33  0  0  0  0  0  0  0  0999 V2000
    8.8270   -7.0288   18.4251 C   0  0  0  0  0  0  0  0  0  0  0  0
    9.1576   -4.6236   15.8860 O   0  0  0  0  0  0  0  0  0  0  0  0
    9.1509   -5.9108   17.7177 C   0  0  0  0  0  0  0  0  0  0  0  0
    3.6373   -9.5349   16.0582 N   0  0  0  0  0  0  0  0  0  0  0  0
    9.9275   -4.8001   18.0438 N   0  0  0  0  0  0  0  0  0  0  0  0
    8.5908   -5.7425   16.4412 C   0  0  0  0  0  0  0  0  0  0  0  0
   10.5993   -4.8981   21.6068 C   0  0  0  0  0  0  0  0  0  0  0  0
   10.4258   -3.0106   23.0998 C   0  0  0  0  0  0  0  0  0  0  0  0
   10.2148   -3.4364   25.4200 C   0  0  0  0  0  0  0  0  0  0  0  0
    9.7853   -1.1840   24.4927 C   0  0  0  0  0  0  0  0  0  0  0  0
    5.0276   -8.5227   17.5352 C   0  0  0  0  0  0  0  0  0  0  0  0
    9.8187   -2.0895   25.5800 C   0  0  0  0  0  0  0  0  0  0  0  0
    5.6473   -8.7216   15.3158 C   0  0  0  0  0  0  0  0  0  0  0  0
   10.7581   -3.1233   19.4720 N   0  0  0  0  0  0  0  0  0  0  0  0
    9.9571   -4.0573   16.8866 C   0  0  0  0  0  0  0  0  0  0  0  0
    7.6213   -6.5618   16.0087 C   0  0  0  0  0  0  0  0  0  0  0  0
   10.8583   -2.6527   20.7222 C   0  0  0  0  0  0  0  0  0  0  0  0
   10.6412   -3.5089   21.7936 C   0  0  0  0  0  0  0  0  0  0  0  0
   10.4972   -3.8968   24.1589 C   0  0  0  0  0  0  0  0  0  0  0  0
    5.9260   -8.2736   16.5517 C   0  0  0  0  0  0  0  0  0  0  0  0
    3.8816   -9.1166   17.2493 C   0  0  0  0  0  0  0  0  0  0  0  0
   10.1297   -1.6575   23.2324 C   0  0  0  0  0  0  0  0  0  0  0  0
    9.4684   -1.6929   26.7263 F   0  0  0  0  0  0  0  0  0  0  0  0
    7.7963   -7.7906   17.9837 C   0  0  0  0  0  0  0  0  0  0  0  0
   10.5884   -3.0725   16.7902 O   0  0  0  0  0  0  0  0  0  0  0  0
   10.4323   -5.3494   20.3516 C   0  0  0  0  0  0  0  0  0  0  0  0
    7.1156   -7.5454   16.8218 C   0  0  0  0  0  0  0  0  0  0  0  0
   10.3885   -4.4388   19.2773 C   0  0  0  0  0  0  0  0  0  0  0  0
    4.5160   -9.3822   15.0841 C   0  0  0  0  0  0  0  0  0  0  0  0
  1  3  4  0
  1 24  4  0
  2  6  4  0
  2 15  4  0
  3  5  4  0
  3  6  4  0
  4 21  4  0
  4 29  4  0
  5 15  4  0
  5 28  1  0
  6 16  4  0
  7 18  4  0
  7 26  4  0
  8 18  1  0
  8 19  4  0
  8 22  4  0
  9 12  4  0
  9 19  4  0
 10 12  4  0
 10 22  4  0
 11 20  4  0
 11 21  4  0
 12 23  1  0
 13 20  4  0
 13 29  4  0
 14 17  4  0
 14 28  4  0
 15 25  2  0
 16 27  4  0
 17 18  4  0
 20 27  1  0
 24 27  4  0
 26 28  4  0
M  END
$$$$

 Created by Python create_sdf_string function

 29 33  0  0  0  0  0  0  0  0999 V2000
    8.8270   -7.0288   18.4251 C   0  0  0  0  0  0  0  0  0  0  0  0
    9.1576   -4.6236   15.8860 O   0  0  0  0  0  0  0  0  0  0  0  0
    9.1509   -5.9108   17.7177 C   0  0  0  0  0  0  0  0  0  0  0  0
    3.6373   -9.5349   16.0582 N   0  0  0  0  0  0  0  0  0  0  0  0
    9.9275   -4.8001   18.0438 N   0  0  0  0  0  0  0  0  0  0  0  0
    8.5908   -5.7425   16.4412 C   0  0  0  0  0  0  0  0  0  0  0  0
   10.5993   -4.8981   21.6068 C   0  0  0  0  0  0  0  0  0  0  0  0
   10.4258   -3.0106   23.0998 C   0  0  0  0  0  0  0  0  0  0  0  0
   10.2148   -3.4364   25.4200 C   0  0  0  0  0  0  0  0  0  0  0  0
    9.7853   -1.1840   24.4927 C   0  0  0  0  0  0  0  0  0  0  0  0
    5.0276   -8.5227   17.5352 C   0  0  0  0  0  0  0  0  0  0  0  0
    9.8187   -2.0895   25.5800 C   0  0  0  0  0  0  0  0  0  0  0  0
    5.6473   -8.7216   15.3158 C   0  0  0  0  0  0  0  0  0  0  0  0
   10.7581   -3.1233   19.4720 N   0  0  0  0  0  0  0  0  0  0  0  0
    9.9571   -4.0573   16.8866 C   0  0  0  0  0  0  0  0  0  0  0  0
    7.6213   -6.5618   16.0087 C   0  0  0  0  0  0  0  0  0  0  0  0
   10.8583   -2.6527   20.7222 C   0  0  0  0  0  0  0  0  0  0  0  0
   10.6412   -3.5089   21.7936 C   0  0  0  0  0  0  0  0  0  0  0  0
   10.4972   -3.8968   24.1589 C   0  0  0  0  0  0  0  0  0  0  0  0
    5.9260   -8.2736   16.5517 C   0  0  0  0  0  0  0  0  0  0  0  0
    3.8816   -9.1166   17.2493 C   0  0  0  0  0  0  0  0  0  0  0  0
   10.1297   -1.6575   23.2324 C   0  0  0  0  0  0  0  0  0  0  0  0
    9.4684   -1.6929   26.7263 F   0  0  0  0  0  0  0  0  0  0  0  0
    7.7963   -7.7906   17.9837 C   0  0  0  0  0  0  0  0  0  0  0  0
   10.5884   -3.0725   16.7902 O   0  0  0  0  0  0  0  0  0  0  0  0
   10.4323   -5.3494   20.3516 C   0  0  0  0  0  0  0  0  0  0  0  0
    7.1156   -7.5454   16.8218 C   0  0  0  0  0  0  0  0  0  0  0  0
   10.3885   -4.4388   19.2773 C   0  0  0  0  0  0  0  0  0  0  0  0
    4.5160   -9.3822   15.0841 C   0  0  0  0  0  0  0  0  0  0  0  0
  1  3  4  0
  1 24  4  0
  2  6  4  0
  2 15  4  0
  3  5  4  0
  3  6  4  0
  4 21  4  0
  4 29  4  0
  5 15  4  0
  5 28  1  0
  6 16  4  0
  7 18  4  0
  7 26  4  0
  8 18  1  0
  8 19  4  0
  8 22  4  0
  9 12  4  0
  9 19  4  0
 10 12  4  0
 10 22  4  0
 11 20  4  0
 11 21  4  0
 12 23  1  0
 13 20  4  0
 13 29  4  0
 14 17  4  0
 14 28  4  0
 15 25  2  0
 16 27  4  0
 17 18  4  0
 20 27  1  0
 24 27  4  0
 26 28  4  0
M  END
$$$$

 Created by Python create_sdf_string function

 29 33  0  0  0  0  0  0  0  0999 V2000
    8.8270   -7.0288   18.4251 C   0  0  0  0  0  0  0  0  0  0  0  0
    9.1576   -4.6236   15.8860 O   0  0  0  0  0  0  0  0  0  0  0  0
    9.1509   -5.9108   17.7177 C   0  0  0  0  0  0  0  0  0  0  0  0
    3.6373   -9.5349   16.0582 N   0  0  0  0  0  0  0  0  0  0  0  0
    9.9275   -4.8001   18.0438 N   0  0  0  0  0  0  0  0  0  0  0  0
    8.5908   -5.7425   16.4412 C   0  0  0  0  0  0  0  0  0  0  0  0
   10.5993   -4.8981   21.6068 C   0  0  0  0  0  0  0  0  0  0  0  0
   10.4258   -3.0106   23.0998 C   0  0  0  0  0  0  0  0  0  0  0  0
   10.2148   -3.4364   25.4200 C   0  0  0  0  0  0  0  0  0  0  0  0
    9.7853   -1.1840   24.4927 C   0  0  0  0  0  0  0  0  0  0  0  0
    5.0276   -8.5227   17.5352 C   0  0  0  0  0  0  0  0  0  0  0  0
    9.8187   -2.0895   25.5800 C   0  0  0  0  0  0  0  0  0  0  0  0
    5.6473   -8.7216   15.3158 C   0  0  0  0  0  0  0  0  0  0  0  0
   10.7581   -3.1233   19.4720 N   0  0  0  0  0  0  0  0  0  0  0  0
    9.9571   -4.0573   16.8866 C   0  0  0  0  0  0  0  0  0  0  0  0
    7.6213   -6.5618   16.0087 C   0  0  0  0  0  0  0  0  0  0  0  0
   10.8583   -2.6527   20.7222 C   0  0  0  0  0  0  0  0  0  0  0  0
   10.6412   -3.5089   21.7936 C   0  0  0  0  0  0  0  0  0  0  0  0
   10.4972   -3.8968   24.1589 C   0  0  0  0  0  0  0  0  0  0  0  0
    5.9260   -8.2736   16.5517 C   0  0  0  0  0  0  0  0  0  0  0  0
    3.8816   -9.1166   17.2493 C   0  0  0  0  0  0  0  0  0  0  0  0
   10.1297   -1.6575   23.2324 C   0  0  0  0  0  0  0  0  0  0  0  0
    9.4684   -1.6929   26.7263 F   0  0  0  0  0  0  0  0  0  0  0  0
    7.7963   -7.7906   17.9837 C   0  0  0  0  0  0  0  0  0  0  0  0
   10.5884   -3.0725   16.7902 O   0  0  0  0  0  0  0  0  0  0  0  0
   10.4323   -5.3494   20.3516 C   0  0  0  0  0  0  0  0  0  0  0  0
    7.1156   -7.5454   16.8218 C   0  0  0  0  0  0  0  0  0  0  0  0
   10.3885   -4.4388   19.2773 C   0  0  0  0  0  0  0  0  0  0  0  0
    4.5160   -9.3822   15.0841 C   0  0  0  0  0  0  0  0  0  0  0  0
  1  3  4  0
  1 24  4  0
  2  6  4  0
  2 15  4  0
  3  5  4  0
  3  6  4  0
  4 21  4  0
  4 29  4  0
  5 15  4  0
  5 28  1  0
  6 16  4  0
  7 18  4  0
  7 26  4  0
  8 18  1  0
  8 19  4  0
  8 22  4  0
  9 12  4  0
  9 19  4  0
 10 12  4  0
 10 22  4  0
 11 20  4  0
 11 21  4  0
 12 23  1  0
 13 20  4  0
 13 29  4  0
 14 17  4  0
 14 28  4  0
 15 25  2  0
 16 27  4  0
 17 18  4  0
 20 27  1  0
 24 27  4  0
 26 28  4  0
M  END
$$$$

 Created by Python create_sdf_string function

 29 33  0  0  0  0  0  0  0  0999 V2000
    8.8270   -7.0288   18.4251 C   0  0  0  0  0  0  0  0  0  0  0  0
    9.1576   -4.6236   15.8860 O   0  0  0  0  0  0  0  0  0  0  0  0
    9.1509   -5.9108   17.7177 C   0  0  0  0  0  0  0  0  0  0  0  0
    3.6373   -9.5349   16.0582 N   0  0  0  0  0  0  0  0  0  0  0  0
    9.9275   -4.8001   18.0438 N   0  0  0  0  0  0  0  0  0  0  0  0
    8.5908   -5.7425   16.4412 C   0  0  0  0  0  0  0  0  0  0  0  0
   10.5993   -4.8981   21.6068 C   0  0  0  0  0  0  0  0  0  0  0  0
   10.4258   -3.0106   23.0998 C   0  0  0  0  0  0  0  0  0  0  0  0
   10.2148   -3.4364   25.4200 C   0  0  0  0  0  0  0  0  0  0  0  0
    9.7853   -1.1840   24.4927 C   0  0  0  0  0  0  0  0  0  0  0  0
    5.0276   -8.5227   17.5352 C   0  0  0  0  0  0  0  0  0  0  0  0
    9.8187   -2.0895   25.5800 C   0  0  0  0  0  0  0  0  0  0  0  0
    5.6473   -8.7216   15.3158 C   0  0  0  0  0  0  0  0  0  0  0  0
   10.7581   -3.1233   19.4720 N   0  0  0  0  0  0  0  0  0  0  0  0
    9.9571   -4.0573   16.8866 C   0  0  0  0  0  0  0  0  0  0  0  0
    7.6213   -6.5618   16.0087 C   0  0  0  0  0  0  0  0  0  0  0  0
   10.8583   -2.6527   20.7222 C   0  0  0  0  0  0  0  0  0  0  0  0
   10.6412   -3.5089   21.7936 C   0  0  0  0  0  0  0  0  0  0  0  0
   10.4972   -3.8968   24.1589 C   0  0  0  0  0  0  0  0  0  0  0  0
    5.9260   -8.2736   16.5517 C   0  0  0  0  0  0  0  0  0  0  0  0
    3.8816   -9.1166   17.2493 C   0  0  0  0  0  0  0  0  0  0  0  0
   10.1297   -1.6575   23.2324 C   0  0  0  0  0  0  0  0  0  0  0  0
    9.4684   -1.6929   26.7263 F   0  0  0  0  0  0  0  0  0  0  0  0
    7.7963   -7.7906   17.9837 C   0  0  0  0  0  0  0  0  0  0  0  0
   10.5884   -3.0725   16.7902 O   0  0  0  0  0  0  0  0  0  0  0  0
   10.4323   -5.3494   20.3516 C   0  0  0  0  0  0  0  0  0  0  0  0
    7.1156   -7.5454   16.8218 C   0  0  0  0  0  0  0  0  0  0  0  0
   10.3885   -4.4388   19.2773 C   0  0  0  0  0  0  0  0  0  0  0  0
    4.5160   -9.3822   15.0841 C   0  0  0  0  0  0  0  0  0  0  0  0
  1  3  4  0
  1 24  4  0
  2  6  4  0
  2 15  4  0
  3  5  4  0
  3  6  4  0
  4 21  4  0
  4 29  4  0
  5 15  4  0
  5 28  1  0
  6 16  4  0
  7 18  4  0
  7 26  4  0
  8 18  1  0
  8 19  4  0
  8 22  4  0
  9 12  4  0
  9 19  4  0
 10 12  4  0
 10 22  4  0
 11 20  4  0
 11 21  4  0
 12 23  1  0
 13 20  4  0
 13 29  4  0
 14 17  4  0
 14 28  4  0
 15 25  2  0
 16 27  4  0
 17 18  4  0
 20 27  1  0
 24 27  4  0
 26 28  4  0
M  END
$$$$

 Created by Python create_sdf_string function

 29 33  0  0  0  0  0  0  0  0999 V2000
    8.8270   -7.0288   18.4251 C   0  0  0  0  0  0  0  0  0  0  0  0
    9.1576   -4.6236   15.8860 O   0  0  0  0  0  0  0  0  0  0  0  0
    9.1509   -5.9108   17.7177 C   0  0  0  0  0  0  0  0  0  0  0  0
    3.6373   -9.5349   16.0582 N   0  0  0  0  0  0  0  0  0  0  0  0
    9.9275   -4.8001   18.0438 N   0  0  0  0  0  0  0  0  0  0  0  0
    8.5908   -5.7425   16.4412 C   0  0  0  0  0  0  0  0  0  0  0  0
   10.5993   -4.8981   21.6068 C   0  0  0  0  0  0  0  0  0  0  0  0
   10.4258   -3.0106   23.0998 C   0  0  0  0  0  0  0  0  0  0  0  0
   10.2148   -3.4364   25.4200 C   0  0  0  0  0  0  0  0  0  0  0  0
    9.7853   -1.1840   24.4927 C   0  0  0  0  0  0  0  0  0  0  0  0
    5.0276   -8.5227   17.5352 C   0  0  0  0  0  0  0  0  0  0  0  0
    9.8187   -2.0895   25.5800 C   0  0  0  0  0  0  0  0  0  0  0  0
    5.6473   -8.7216   15.3158 C   0  0  0  0  0  0  0  0  0  0  0  0
   10.7581   -3.1233   19.4720 N   0  0  0  0  0  0  0  0  0  0  0  0
    9.9571   -4.0573   16.8866 C   0  0  0  0  0  0  0  0  0  0  0  0
    7.6213   -6.5618   16.0087 C   0  0  0  0  0  0  0  0  0  0  0  0
   10.8583   -2.6527   20.7222 C   0  0  0  0  0  0  0  0  0  0  0  0
   10.6412   -3.5089   21.7936 C   0  0  0  0  0  0  0  0  0  0  0  0
   10.4972   -3.8968   24.1589 C   0  0  0  0  0  0  0  0  0  0  0  0
    5.9260   -8.2736   16.5517 C   0  0  0  0  0  0  0  0  0  0  0  0
    3.8816   -9.1166   17.2493 C   0  0  0  0  0  0  0  0  0  0  0  0
   10.1297   -1.6575   23.2324 C   0  0  0  0  0  0  0  0  0  0  0  0
    9.4684   -1.6929   26.7263 F   0  0  0  0  0  0  0  0  0  0  0  0
    7.7963   -7.7906   17.9837 C   0  0  0  0  0  0  0  0  0  0  0  0
   10.5884   -3.0725   16.7902 O   0  0  0  0  0  0  0  0  0  0  0  0
   10.4323   -5.3494   20.3516 C   0  0  0  0  0  0  0  0  0  0  0  0
    7.1156   -7.5454   16.8218 C   0  0  0  0  0  0  0  0  0  0  0  0
   10.3885   -4.4388   19.2773 C   0  0  0  0  0  0  0  0  0  0  0  0
    4.5160   -9.3822   15.0841 C   0  0  0  0  0  0  0  0  0  0  0  0
  1  3  4  0
  1 24  4  0
  2  6  4  0
  2 15  4  0
  3  5  4  0
  3  6  4  0
  4 21  4  0
  4 29  4  0
  5 15  4  0
  5 28  1  0
  6 16  4  0
  7 18  4  0
  7 26  4  0
  8 18  1  0
  8 19  4  0
  8 22  4  0
  9 12  4  0
  9 19  4  0
 10 12  4  0
 10 22  4  0
 11 20  4  0
 11 21  4  0
 12 23  1  0
 13 20  4  0
 13 29  4  0
 14 17  4  0
 14 28  4  0
 15 25  2  0
 16 27  4  0
 17 18  4  0
 20 27  1  0
 24 27  4  0
 26 28  4  0
M  END
$$$$

 Created by Python create_sdf_string function

 29 33  0  0  0  0  0  0  0  0999 V2000
    8.8270   -7.0288   18.4251 C   0  0  0  0  0  0  0  0  0  0  0  0
    9.1576   -4.6236   15.8860 O   0  0  0  0  0  0  0  0  0  0  0  0
    9.1509   -5.9108   17.7177 C   0  0  0  0  0  0  0  0  0  0  0  0
    3.6373   -9.5349   16.0582 N   0  0  0  0  0  0  0  0  0  0  0  0
    9.9275   -4.8001   18.0438 N   0  0  0  0  0  0  0  0  0  0  0  0
    8.5908   -5.7425   16.4412 C   0  0  0  0  0  0  0  0  0  0  0  0
   10.5993   -4.8981   21.6068 C   0  0  0  0  0  0  0  0  0  0  0  0
   10.4258   -3.0106   23.0998 C   0  0  0  0  0  0  0  0  0  0  0  0
   10.2148   -3.4364   25.4200 C   0  0  0  0  0  0  0  0  0  0  0  0
    9.7853   -1.1840   24.4927 C   0  0  0  0  0  0  0  0  0  0  0  0
    5.0276   -8.5227   17.5352 C   0  0  0  0  0  0  0  0  0  0  0  0
    9.8187   -2.0895   25.5800 C   0  0  0  0  0  0  0  0  0  0  0  0
    5.6473   -8.7216   15.3158 C   0  0  0  0  0  0  0  0  0  0  0  0
   10.7581   -3.1233   19.4720 N   0  0  0  0  0  0  0  0  0  0  0  0
    9.9571   -4.0573   16.8866 C   0  0  0  0  0  0  0  0  0  0  0  0
    7.6213   -6.5618   16.0087 C   0  0  0  0  0  0  0  0  0  0  0  0
   10.8583   -2.6527   20.7222 C   0  0  0  0  0  0  0  0  0  0  0  0
   10.6412   -3.5089   21.7936 C   0  0  0  0  0  0  0  0  0  0  0  0
   10.4972   -3.8968   24.1589 C   0  0  0  0  0  0  0  0  0  0  0  0
    5.9260   -8.2736   16.5517 C   0  0  0  0  0  0  0  0  0  0  0  0
    3.8816   -9.1166   17.2493 C   0  0  0  0  0  0  0  0  0  0  0  0
   10.1297   -1.6575   23.2324 C   0  0  0  0  0  0  0  0  0  0  0  0
    9.4684   -1.6929   26.7263 F   0  0  0  0  0  0  0  0  0  0  0  0
    7.7963   -7.7906   17.9837 C   0  0  0  0  0  0  0  0  0  0  0  0
   10.5884   -3.0725   16.7902 O   0  0  0  0  0  0  0  0  0  0  0  0
   10.4323   -5.3494   20.3516 C   0  0  0  0  0  0  0  0  0  0  0  0
    7.1156   -7.5454   16.8218 C   0  0  0  0  0  0  0  0  0  0  0  0
   10.3885   -4.4388   19.2773 C   0  0  0  0  0  0  0  0  0  0  0  0
    4.5160   -9.3822   15.0841 C   0  0  0  0  0  0  0  0  0  0  0  0
  1  3  4  0
  1 24  4  0
  2  6  4  0
  2 15  4  0
  3  5  4  0
  3  6  4  0
  4 21  4  0
  4 29  4  0
  5 15  4  0
  5 28  1  0
  6 16  4  0
  7 18  4  0
  7 26  4  0
  8 18  1  0
  8 19  4  0
  8 22  4  0
  9 12  4  0
  9 19  4  0
 10 12  4  0
 10 22  4  0
 11 20  4  0
 11 21  4  0
 12 23  1  0
 13 20  4  0
 13 29  4  0
 14 17  4  0
 14 28  4  0
 15 25  2  0
 16 27  4  0
 17 18  4  0
 20 27  1  0
 24 27  4  0
 26 28  4  0
M  END
$$$$

 Created by Python create_sdf_string function

 29 33  0  0  0  0  0  0  0  0999 V2000
    8.8270   -7.0288   18.4251 C   0  0  0  0  0  0  0  0  0  0  0  0
    9.1576   -4.6236   15.8860 O   0  0  0  0  0  0  0  0  0  0  0  0
    9.1509   -5.9108   17.7177 C   0  0  0  0  0  0  0  0  0  0  0  0
    3.6373   -9.5349   16.0582 N   0  0  0  0  0  0  0  0  0  0  0  0
    9.9275   -4.8001   18.0438 N   0  0  0  0  0  0  0  0  0  0  0  0
    8.5908   -5.7425   16.4412 C   0  0  0  0  0  0  0  0  0  0  0  0
   10.5993   -4.8981   21.6068 C   0  0  0  0  0  0  0  0  0  0  0  0
   10.4258   -3.0106   23.0998 C   0  0  0  0  0  0  0  0  0  0  0  0
   10.2148   -3.4364   25.4200 C   0  0  0  0  0  0  0  0  0  0  0  0
    9.7853   -1.1840   24.4927 C   0  0  0  0  0  0  0  0  0  0  0  0
    5.0276   -8.5227   17.5352 C   0  0  0  0  0  0  0  0  0  0  0  0
    9.8187   -2.0895   25.5800 C   0  0  0  0  0  0  0  0  0  0  0  0
    5.6473   -8.7216   15.3158 C   0  0  0  0  0  0  0  0  0  0  0  0
   10.7581   -3.1233   19.4720 N   0  0  0  0  0  0  0  0  0  0  0  0
    9.9571   -4.0573   16.8866 C   0  0  0  0  0  0  0  0  0  0  0  0
    7.6213   -6.5618   16.0087 C   0  0  0  0  0  0  0  0  0  0  0  0
   10.8583   -2.6527   20.7222 C   0  0  0  0  0  0  0  0  0  0  0  0
   10.6412   -3.5089   21.7936 C   0  0  0  0  0  0  0  0  0  0  0  0
   10.4972   -3.8968   24.1589 C   0  0  0  0  0  0  0  0  0  0  0  0
    5.9260   -8.2736   16.5517 C   0  0  0  0  0  0  0  0  0  0  0  0
    3.8816   -9.1166   17.2493 C   0  0  0  0  0  0  0  0  0  0  0  0
   10.1297   -1.6575   23.2324 C   0  0  0  0  0  0  0  0  0  0  0  0
    9.4684   -1.6929   26.7263 F   0  0  0  0  0  0  0  0  0  0  0  0
    7.7963   -7.7906   17.9837 C   0  0  0  0  0  0  0  0  0  0  0  0
   10.5884   -3.0725   16.7902 O   0  0  0  0  0  0  0  0  0  0  0  0
   10.4323   -5.3494   20.3516 C   0  0  0  0  0  0  0  0  0  0  0  0
    7.1156   -7.5454   16.8218 C   0  0  0  0  0  0  0  0  0  0  0  0
   10.3885   -4.4388   19.2773 C   0  0  0  0  0  0  0  0  0  0  0  0
    4.5160   -9.3822   15.0841 C   0  0  0  0  0  0  0  0  0  0  0  0
  1  3  4  0
  1 24  4  0
  2  6  4  0
  2 15  4  0
  3  5  4  0
  3  6  4  0
  4 21  4  0
  4 29  4  0
  5 15  4  0
  5 28  1  0
  6 16  4  0
  7 18  4  0
  7 26  4  0
  8 18  1  0
  8 19  4  0
  8 22  4  0
  9 12  4  0
  9 19  4  0
 10 12  4  0
 10 22  4  0
 11 20  4  0
 11 21  4  0
 12 23  1  0
 13 20  4  0
 13 29  4  0
 14 17  4  0
 14 28  4  0
 15 25  2  0
 16 27  4  0
 17 18  4  0
 20 27  1  0
 24 27  4  0
 26 28  4  0
M  END
$$$$

 Created by Python create_sdf_string function

 29 33  0  0  0  0  0  0  0  0999 V2000
    8.8270   -7.0288   18.4251 C   0  0  0  0  0  0  0  0  0  0  0  0
    9.1576   -4.6236   15.8860 O   0  0  0  0  0  0  0  0  0  0  0  0
    9.1509   -5.9108   17.7177 C   0  0  0  0  0  0  0  0  0  0  0  0
    3.6373   -9.5349   16.0582 N   0  0  0  0  0  0  0  0  0  0  0  0
    9.9275   -4.8001   18.0438 N   0  0  0  0  0  0  0  0  0  0  0  0
    8.5908   -5.7425   16.4412 C   0  0  0  0  0  0  0  0  0  0  0  0
   10.5993   -4.8981   21.6068 C   0  0  0  0  0  0  0  0  0  0  0  0
   10.4258   -3.0106   23.0998 C   0  0  0  0  0  0  0  0  0  0  0  0
   10.2148   -3.4364   25.4200 C   0  0  0  0  0  0  0  0  0  0  0  0
    9.7853   -1.1840   24.4927 C   0  0  0  0  0  0  0  0  0  0  0  0
    5.0276   -8.5227   17.5352 C   0  0  0  0  0  0  0  0  0  0  0  0
    9.8187   -2.0895   25.5800 C   0  0  0  0  0  0  0  0  0  0  0  0
    5.6473   -8.7216   15.3158 C   0  0  0  0  0  0  0  0  0  0  0  0
   10.7581   -3.1233   19.4720 N   0  0  0  0  0  0  0  0  0  0  0  0
    9.9571   -4.0573   16.8866 C   0  0  0  0  0  0  0  0  0  0  0  0
    7.6213   -6.5618   16.0087 C   0  0  0  0  0  0  0  0  0  0  0  0
   10.8583   -2.6527   20.7222 C   0  0  0  0  0  0  0  0  0  0  0  0
   10.6412   -3.5089   21.7936 C   0  0  0  0  0  0  0  0  0  0  0  0
   10.4972   -3.8968   24.1589 C   0  0  0  0  0  0  0  0  0  0  0  0
    5.9260   -8.2736   16.5517 C   0  0  0  0  0  0  0  0  0  0  0  0
    3.8816   -9.1166   17.2493 C   0  0  0  0  0  0  0  0  0  0  0  0
   10.1297   -1.6575   23.2324 C   0  0  0  0  0  0  0  0  0  0  0  0
    9.4684   -1.6929   26.7263 F   0  0  0  0  0  0  0  0  0  0  0  0
    7.7963   -7.7906   17.9837 C   0  0  0  0  0  0  0  0  0  0  0  0
   10.5884   -3.0725   16.7902 O   0  0  0  0  0  0  0  0  0  0  0  0
   10.4323   -5.3494   20.3516 C   0  0  0  0  0  0  0  0  0  0  0  0
    7.1156   -7.5454   16.8218 C   0  0  0  0  0  0  0  0  0  0  0  0
   10.3885   -4.4388   19.2773 C   0  0  0  0  0  0  0  0  0  0  0  0
    4.5160   -9.3822   15.0841 C   0  0  0  0  0  0  0  0  0  0  0  0
  1  3  4  0
  1 24  4  0
  2  6  4  0
  2 15  4  0
  3  5  4  0
  3  6  4  0
  4 21  4  0
  4 29  4  0
  5 15  4  0
  5 28  1  0
  6 16  4  0
  7 18  4  0
  7 26  4  0
  8 18  1  0
  8 19  4  0
  8 22  4  0
  9 12  4  0
  9 19  4  0
 10 12  4  0
 10 22  4  0
 11 20  4  0
 11 21  4  0
 12 23  1  0
 13 20  4  0
 13 29  4  0
 14 17  4  0
 14 28  4  0
 15 25  2  0
 16 27  4  0
 17 18  4  0
 20 27  1  0
 24 27  4  0
 26 28  4  0
M  END
$$$$

 Created by Python create_sdf_string function

 29 33  0  0  0  0  0  0  0  0999 V2000
    8.8270   -7.0288   18.4251 C   0  0  0  0  0  0  0  0  0  0  0  0
    9.1576   -4.6236   15.8860 O   0  0  0  0  0  0  0  0  0  0  0  0
    9.1509   -5.9108   17.7177 C   0  0  0  0  0  0  0  0  0  0  0  0
    3.6373   -9.5349   16.0582 N   0  0  0  0  0  0  0  0  0  0  0  0
    9.9275   -4.8001   18.0438 N   0  0  0  0  0  0  0  0  0  0  0  0
    8.5908   -5.7425   16.4412 C   0  0  0  0  0  0  0  0  0  0  0  0
   10.5993   -4.8981   21.6068 C   0  0  0  0  0  0  0  0  0  0  0  0
   10.4258   -3.0106   23.0998 C   0  0  0  0  0  0  0  0  0  0  0  0
   10.2148   -3.4364   25.4200 C   0  0  0  0  0  0  0  0  0  0  0  0
    9.7853   -1.1840   24.4927 C   0  0  0  0  0  0  0  0  0  0  0  0
    5.0276   -8.5227   17.5352 C   0  0  0  0  0  0  0  0  0  0  0  0
    9.8187   -2.0895   25.5800 C   0  0  0  0  0  0  0  0  0  0  0  0
    5.6473   -8.7216   15.3158 C   0  0  0  0  0  0  0  0  0  0  0  0
   10.7581   -3.1233   19.4720 N   0  0  0  0  0  0  0  0  0  0  0  0
    9.9571   -4.0573   16.8866 C   0  0  0  0  0  0  0  0  0  0  0  0
    7.6213   -6.5618   16.0087 C   0  0  0  0  0  0  0  0  0  0  0  0
   10.8583   -2.6527   20.7222 C   0  0  0  0  0  0  0  0  0  0  0  0
   10.6412   -3.5089   21.7936 C   0  0  0  0  0  0  0  0  0  0  0  0
   10.4972   -3.8968   24.1589 C   0  0  0  0  0  0  0  0  0  0  0  0
    5.9260   -8.2736   16.5517 C   0  0  0  0  0  0  0  0  0  0  0  0
    3.8816   -9.1166   17.2493 C   0  0  0  0  0  0  0  0  0  0  0  0
   10.1297   -1.6575   23.2324 C   0  0  0  0  0  0  0  0  0  0  0  0
    9.4684   -1.6929   26.7263 F   0  0  0  0  0  0  0  0  0  0  0  0
    7.7963   -7.7906   17.9837 C   0  0  0  0  0  0  0  0  0  0  0  0
   10.5884   -3.0725   16.7902 O   0  0  0  0  0  0  0  0  0  0  0  0
   10.4323   -5.3494   20.3516 C   0  0  0  0  0  0  0  0  0  0  0  0
    7.1156   -7.5454   16.8218 C   0  0  0  0  0  0  0  0  0  0  0  0
   10.3885   -4.4388   19.2773 C   0  0  0  0  0  0  0  0  0  0  0  0
    4.5160   -9.3822   15.0841 C   0  0  0  0  0  0  0  0  0  0  0  0
  1  3  4  0
  1 24  4  0
  2  6  4  0
  2 15  4  0
  3  5  4  0
  3  6  4  0
  4 21  4  0
  4 29  4  0
  5 15  4  0
  5 28  1  0
  6 16  4  0
  7 18  4  0
  7 26  4  0
  8 18  1  0
  8 19  4  0
  8 22  4  0
  9 12  4  0
  9 19  4  0
 10 12  4  0
 10 22  4  0
 11 20  4  0
 11 21  4  0
 12 23  1  0
 13 20  4  0
 13 29  4  0
 14 17  4  0
 14 28  4  0
 15 25  2  0
 16 27  4  0
 17 18  4  0
 20 27  1  0
 24 27  4  0
 26 28  4  0
M  END
$$$$

 Created by Python create_sdf_string function

 29 33  0  0  0  0  0  0  0  0999 V2000
    8.8270   -7.0288   18.4251 C   0  0  0  0  0  0  0  0  0  0  0  0
    9.1576   -4.6236   15.8860 O   0  0  0  0  0  0  0  0  0  0  0  0
    9.1509   -5.9108   17.7177 C   0  0  0  0  0  0  0  0  0  0  0  0
    3.6373   -9.5349   16.0582 N   0  0  0  0  0  0  0  0  0  0  0  0
    9.9275   -4.8001   18.0438 N   0  0  0  0  0  0  0  0  0  0  0  0
    8.5908   -5.7425   16.4412 C   0  0  0  0  0  0  0  0  0  0  0  0
   10.5993   -4.8981   21.6068 C   0  0  0  0  0  0  0  0  0  0  0  0
   10.4258   -3.0106   23.0998 C   0  0  0  0  0  0  0  0  0  0  0  0
   10.2148   -3.4364   25.4200 C   0  0  0  0  0  0  0  0  0  0  0  0
    9.7853   -1.1840   24.4927 C   0  0  0  0  0  0  0  0  0  0  0  0
    5.0276   -8.5227   17.5352 C   0  0  0  0  0  0  0  0  0  0  0  0
    9.8187   -2.0895   25.5800 C   0  0  0  0  0  0  0  0  0  0  0  0
    5.6473   -8.7216   15.3158 C   0  0  0  0  0  0  0  0  0  0  0  0
   10.7581   -3.1233   19.4720 N   0  0  0  0  0  0  0  0  0  0  0  0
    9.9571   -4.0573   16.8866 C   0  0  0  0  0  0  0  0  0  0  0  0
    7.6213   -6.5618   16.0087 C   0  0  0  0  0  0  0  0  0  0  0  0
   10.8583   -2.6527   20.7222 C   0  0  0  0  0  0  0  0  0  0  0  0
   10.6412   -3.5089   21.7936 C   0  0  0  0  0  0  0  0  0  0  0  0
   10.4972   -3.8968   24.1589 C   0  0  0  0  0  0  0  0  0  0  0  0
    5.9260   -8.2736   16.5517 C   0  0  0  0  0  0  0  0  0  0  0  0
    3.8816   -9.1166   17.2493 C   0  0  0  0  0  0  0  0  0  0  0  0
   10.1297   -1.6575   23.2324 C   0  0  0  0  0  0  0  0  0  0  0  0
    9.4684   -1.6929   26.7263 F   0  0  0  0  0  0  0  0  0  0  0  0
    7.7963   -7.7906   17.9837 C   0  0  0  0  0  0  0  0  0  0  0  0
   10.5884   -3.0725   16.7902 O   0  0  0  0  0  0  0  0  0  0  0  0
   10.4323   -5.3494   20.3516 C   0  0  0  0  0  0  0  0  0  0  0  0
    7.1156   -7.5454   16.8218 C   0  0  0  0  0  0  0  0  0  0  0  0
   10.3885   -4.4388   19.2773 C   0  0  0  0  0  0  0  0  0  0  0  0
    4.5160   -9.3822   15.0841 C   0  0  0  0  0  0  0  0  0  0  0  0
  1  3  4  0
  1 24  4  0
  2  6  4  0
  2 15  4  0
  3  5  4  0
  3  6  4  0
  4 21  4  0
  4 29  4  0
  5 15  4  0
  5 28  1  0
  6 16  4  0
  7 18  4  0
  7 26  4  0
  8 18  1  0
  8 19  4  0
  8 22  4  0
  9 12  4  0
  9 19  4  0
 10 12  4  0
 10 22  4  0
 11 20  4  0
 11 21  4  0
 12 23  1  0
 13 20  4  0
 13 29  4  0
 14 17  4  0
 14 28  4  0
 15 25  2  0
 16 27  4  0
 17 18  4  0
 20 27  1  0
 24 27  4  0
 26 28  4  0
M  END
$$$$

 Created by Python create_sdf_string function

 29 33  0  0  0  0  0  0  0  0999 V2000
    8.8270   -7.0288   18.4251 C   0  0  0  0  0  0  0  0  0  0  0  0
    9.1576   -4.6236   15.8860 O   0  0  0  0  0  0  0  0  0  0  0  0
    9.1509   -5.9108   17.7177 C   0  0  0  0  0  0  0  0  0  0  0  0
    3.6373   -9.5349   16.0582 N   0  0  0  0  0  0  0  0  0  0  0  0
    9.9275   -4.8001   18.0438 N   0  0  0  0  0  0  0  0  0  0  0  0
    8.5908   -5.7425   16.4412 C   0  0  0  0  0  0  0  0  0  0  0  0
   10.5993   -4.8981   21.6068 C   0  0  0  0  0  0  0  0  0  0  0  0
   10.4258   -3.0106   23.0998 C   0  0  0  0  0  0  0  0  0  0  0  0
   10.2148   -3.4364   25.4200 C   0  0  0  0  0  0  0  0  0  0  0  0
    9.7853   -1.1840   24.4927 C   0  0  0  0  0  0  0  0  0  0  0  0
    5.0276   -8.5227   17.5352 C   0  0  0  0  0  0  0  0  0  0  0  0
    9.8187   -2.0895   25.5800 C   0  0  0  0  0  0  0  0  0  0  0  0
    5.6473   -8.7216   15.3158 C   0  0  0  0  0  0  0  0  0  0  0  0
   10.7581   -3.1233   19.4720 N   0  0  0  0  0  0  0  0  0  0  0  0
    9.9571   -4.0573   16.8866 C   0  0  0  0  0  0  0  0  0  0  0  0
    7.6213   -6.5618   16.0087 C   0  0  0  0  0  0  0  0  0  0  0  0
   10.8583   -2.6527   20.7222 C   0  0  0  0  0  0  0  0  0  0  0  0
   10.6412   -3.5089   21.7936 C   0  0  0  0  0  0  0  0  0  0  0  0
   10.4972   -3.8968   24.1589 C   0  0  0  0  0  0  0  0  0  0  0  0
    5.9260   -8.2736   16.5517 C   0  0  0  0  0  0  0  0  0  0  0  0
    3.8816   -9.1166   17.2493 C   0  0  0  0  0  0  0  0  0  0  0  0
   10.1297   -1.6575   23.2324 C   0  0  0  0  0  0  0  0  0  0  0  0
    9.4684   -1.6929   26.7263 F   0  0  0  0  0  0  0  0  0  0  0  0
    7.7963   -7.7906   17.9837 C   0  0  0  0  0  0  0  0  0  0  0  0
   10.5884   -3.0725   16.7902 O   0  0  0  0  0  0  0  0  0  0  0  0
   10.4323   -5.3494   20.3516 C   0  0  0  0  0  0  0  0  0  0  0  0
    7.1156   -7.5454   16.8218 C   0  0  0  0  0  0  0  0  0  0  0  0
   10.3885   -4.4388   19.2773 C   0  0  0  0  0  0  0  0  0  0  0  0
    4.5160   -9.3822   15.0841 C   0  0  0  0  0  0  0  0  0  0  0  0
  1  3  4  0
  1 24  4  0
  2  6  4  0
  2 15  4  0
  3  5  4  0
  3  6  4  0
  4 21  4  0
  4 29  4  0
  5 15  4  0
  5 28  1  0
  6 16  4  0
  7 18  4  0
  7 26  4  0
  8 18  1  0
  8 19  4  0
  8 22  4  0
  9 12  4  0
  9 19  4  0
 10 12  4  0
 10 22  4  0
 11 20  4  0
 11 21  4  0
 12 23  1  0
 13 20  4  0
 13 29  4  0
 14 17  4  0
 14 28  4  0
 15 25  2  0
 16 27  4  0
 17 18  4  0
 20 27  1  0
 24 27  4  0
 26 28  4  0
M  END
$$$$

 Created by Python create_sdf_string function

 29 33  0  0  0  0  0  0  0  0999 V2000
    8.8270   -7.0288   18.4251 C   0  0  0  0  0  0  0  0  0  0  0  0
    9.1576   -4.6236   15.8860 O   0  0  0  0  0  0  0  0  0  0  0  0
    9.1509   -5.9108   17.7177 C   0  0  0  0  0  0  0  0  0  0  0  0
    3.6373   -9.5349   16.0582 N   0  0  0  0  0  0  0  0  0  0  0  0
    9.9275   -4.8001   18.0438 N   0  0  0  0  0  0  0  0  0  0  0  0
    8.5908   -5.7425   16.4412 C   0  0  0  0  0  0  0  0  0  0  0  0
   10.5993   -4.8981   21.6068 C   0  0  0  0  0  0  0  0  0  0  0  0
   10.4258   -3.0106   23.0998 C   0  0  0  0  0  0  0  0  0  0  0  0
   10.2148   -3.4364   25.4200 C   0  0  0  0  0  0  0  0  0  0  0  0
    9.7853   -1.1840   24.4927 C   0  0  0  0  0  0  0  0  0  0  0  0
    5.0276   -8.5227   17.5352 C   0  0  0  0  0  0  0  0  0  0  0  0
    9.8187   -2.0895   25.5800 C   0  0  0  0  0  0  0  0  0  0  0  0
    5.6473   -8.7216   15.3158 C   0  0  0  0  0  0  0  0  0  0  0  0
   10.7581   -3.1233   19.4720 N   0  0  0  0  0  0  0  0  0  0  0  0
    9.9571   -4.0573   16.8866 C   0  0  0  0  0  0  0  0  0  0  0  0
    7.6213   -6.5618   16.0087 C   0  0  0  0  0  0  0  0  0  0  0  0
   10.8583   -2.6527   20.7222 C   0  0  0  0  0  0  0  0  0  0  0  0
   10.6412   -3.5089   21.7936 C   0  0  0  0  0  0  0  0  0  0  0  0
   10.4972   -3.8968   24.1589 C   0  0  0  0  0  0  0  0  0  0  0  0
    5.9260   -8.2736   16.5517 C   0  0  0  0  0  0  0  0  0  0  0  0
    3.8816   -9.1166   17.2493 C   0  0  0  0  0  0  0  0  0  0  0  0
   10.1297   -1.6575   23.2324 C   0  0  0  0  0  0  0  0  0  0  0  0
    9.4684   -1.6929   26.7263 F   0  0  0  0  0  0  0  0  0  0  0  0
    7.7963   -7.7906   17.9837 C   0  0  0  0  0  0  0  0  0  0  0  0
   10.5884   -3.0725   16.7902 O   0  0  0  0  0  0  0  0  0  0  0  0
   10.4323   -5.3494   20.3516 C   0  0  0  0  0  0  0  0  0  0  0  0
    7.1156   -7.5454   16.8218 C   0  0  0  0  0  0  0  0  0  0  0  0
   10.3885   -4.4388   19.2773 C   0  0  0  0  0  0  0  0  0  0  0  0
    4.5160   -9.3822   15.0841 C   0  0  0  0  0  0  0  0  0  0  0  0
  1  3  4  0
  1 24  4  0
  2  6  4  0
  2 15  4  0
  3  5  4  0
  3  6  4  0
  4 21  4  0
  4 29  4  0
  5 15  4  0
  5 28  1  0
  6 16  4  0
  7 18  4  0
  7 26  4  0
  8 18  1  0
  8 19  4  0
  8 22  4  0
  9 12  4  0
  9 19  4  0
 10 12  4  0
 10 22  4  0
 11 20  4  0
 11 21  4  0
 12 23  1  0
 13 20  4  0
 13 29  4  0
 14 17  4  0
 14 28  4  0
 15 25  2  0
 16 27  4  0
 17 18  4  0
 20 27  1  0
 24 27  4  0
 26 28  4  0
M  END
$$$$

 Created by Python create_sdf_string function

 29 33  0  0  0  0  0  0  0  0999 V2000
    8.8270   -7.0288   18.4251 C   0  0  0  0  0  0  0  0  0  0  0  0
    9.1576   -4.6236   15.8860 O   0  0  0  0  0  0  0  0  0  0  0  0
    9.1509   -5.9108   17.7177 C   0  0  0  0  0  0  0  0  0  0  0  0
    3.6373   -9.5349   16.0582 N   0  0  0  0  0  0  0  0  0  0  0  0
    9.9275   -4.8001   18.0438 N   0  0  0  0  0  0  0  0  0  0  0  0
    8.5908   -5.7425   16.4412 C   0  0  0  0  0  0  0  0  0  0  0  0
   10.5993   -4.8981   21.6068 C   0  0  0  0  0  0  0  0  0  0  0  0
   10.4258   -3.0106   23.0998 C   0  0  0  0  0  0  0  0  0  0  0  0
   10.2148   -3.4364   25.4200 C   0  0  0  0  0  0  0  0  0  0  0  0
    9.7853   -1.1840   24.4927 C   0  0  0  0  0  0  0  0  0  0  0  0
    5.0276   -8.5227   17.5352 C   0  0  0  0  0  0  0  0  0  0  0  0
    9.8187   -2.0895   25.5800 C   0  0  0  0  0  0  0  0  0  0  0  0
    5.6473   -8.7216   15.3158 C   0  0  0  0  0  0  0  0  0  0  0  0
   10.7581   -3.1233   19.4720 N   0  0  0  0  0  0  0  0  0  0  0  0
    9.9571   -4.0573   16.8866 C   0  0  0  0  0  0  0  0  0  0  0  0
    7.6213   -6.5618   16.0087 C   0  0  0  0  0  0  0  0  0  0  0  0
   10.8583   -2.6527   20.7222 C   0  0  0  0  0  0  0  0  0  0  0  0
   10.6412   -3.5089   21.7936 C   0  0  0  0  0  0  0  0  0  0  0  0
   10.4972   -3.8968   24.1589 C   0  0  0  0  0  0  0  0  0  0  0  0
    5.9260   -8.2736   16.5517 C   0  0  0  0  0  0  0  0  0  0  0  0
    3.8816   -9.1166   17.2493 C   0  0  0  0  0  0  0  0  0  0  0  0
   10.1297   -1.6575   23.2324 C   0  0  0  0  0  0  0  0  0  0  0  0
    9.4684   -1.6929   26.7263 F   0  0  0  0  0  0  0  0  0  0  0  0
    7.7963   -7.7906   17.9837 C   0  0  0  0  0  0  0  0  0  0  0  0
   10.5884   -3.0725   16.7902 O   0  0  0  0  0  0  0  0  0  0  0  0
   10.4323   -5.3494   20.3516 C   0  0  0  0  0  0  0  0  0  0  0  0
    7.1156   -7.5454   16.8218 C   0  0  0  0  0  0  0  0  0  0  0  0
   10.3885   -4.4388   19.2773 C   0  0  0  0  0  0  0  0  0  0  0  0
    4.5160   -9.3822   15.0841 C   0  0  0  0  0  0  0  0  0  0  0  0
  1  3  4  0
  1 24  4  0
  2  6  4  0
  2 15  4  0
  3  5  4  0
  3  6  4  0
  4 21  4  0
  4 29  4  0
  5 15  4  0
  5 28  1  0
  6 16  4  0
  7 18  4  0
  7 26  4  0
  8 18  1  0
  8 19  4  0
  8 22  4  0
  9 12  4  0
  9 19  4  0
 10 12  4  0
 10 22  4  0
 11 20  4  0
 11 21  4  0
 12 23  1  0
 13 20  4  0
 13 29  4  0
 14 17  4  0
 14 28  4  0
 15 25  2  0
 16 27  4  0
 17 18  4  0
 20 27  1  0
 24 27  4  0
 26 28  4  0
M  END
$$$$

 Created by Python create_sdf_string function

 29 33  0  0  0  0  0  0  0  0999 V2000
    8.8270   -7.0288   18.4251 C   0  0  0  0  0  0  0  0  0  0  0  0
    9.1576   -4.6236   15.8860 O   0  0  0  0  0  0  0  0  0  0  0  0
    9.1509   -5.9108   17.7177 C   0  0  0  0  0  0  0  0  0  0  0  0
    3.6373   -9.5349   16.0582 N   0  0  0  0  0  0  0  0  0  0  0  0
    9.9275   -4.8001   18.0438 N   0  0  0  0  0  0  0  0  0  0  0  0
    8.5908   -5.7425   16.4412 C   0  0  0  0  0  0  0  0  0  0  0  0
   10.5993   -4.8981   21.6068 C   0  0  0  0  0  0  0  0  0  0  0  0
   10.4258   -3.0106   23.0998 C   0  0  0  0  0  0  0  0  0  0  0  0
   10.2148   -3.4364   25.4200 C   0  0  0  0  0  0  0  0  0  0  0  0
    9.7853   -1.1840   24.4927 C   0  0  0  0  0  0  0  0  0  0  0  0
    5.0276   -8.5227   17.5352 C   0  0  0  0  0  0  0  0  0  0  0  0
    9.8187   -2.0895   25.5800 C   0  0  0  0  0  0  0  0  0  0  0  0
    5.6473   -8.7216   15.3158 C   0  0  0  0  0  0  0  0  0  0  0  0
   10.7581   -3.1233   19.4720 N   0  0  0  0  0  0  0  0  0  0  0  0
    9.9571   -4.0573   16.8866 C   0  0  0  0  0  0  0  0  0  0  0  0
    7.6213   -6.5618   16.0087 C   0  0  0  0  0  0  0  0  0  0  0  0
   10.8583   -2.6527   20.7222 C   0  0  0  0  0  0  0  0  0  0  0  0
   10.6412   -3.5089   21.7936 C   0  0  0  0  0  0  0  0  0  0  0  0
   10.4972   -3.8968   24.1589 C   0  0  0  0  0  0  0  0  0  0  0  0
    5.9260   -8.2736   16.5517 C   0  0  0  0  0  0  0  0  0  0  0  0
    3.8816   -9.1166   17.2493 C   0  0  0  0  0  0  0  0  0  0  0  0
   10.1297   -1.6575   23.2324 C   0  0  0  0  0  0  0  0  0  0  0  0
    9.4684   -1.6929   26.7263 F   0  0  0  0  0  0  0  0  0  0  0  0
    7.7963   -7.7906   17.9837 C   0  0  0  0  0  0  0  0  0  0  0  0
   10.5884   -3.0725   16.7902 O   0  0  0  0  0  0  0  0  0  0  0  0
   10.4323   -5.3494   20.3516 C   0  0  0  0  0  0  0  0  0  0  0  0
    7.1156   -7.5454   16.8218 C   0  0  0  0  0  0  0  0  0  0  0  0
   10.3885   -4.4388   19.2773 C   0  0  0  0  0  0  0  0  0  0  0  0
    4.5160   -9.3822   15.0841 C   0  0  0  0  0  0  0  0  0  0  0  0
  1  3  4  0
  1 24  4  0
  2  6  4  0
  2 15  4  0
  3  5  4  0
  3  6  4  0
  4 21  4  0
  4 29  4  0
  5 15  4  0
  5 28  1  0
  6 16  4  0
  7 18  4  0
  7 26  4  0
  8 18  1  0
  8 19  4  0
  8 22  4  0
  9 12  4  0
  9 19  4  0
 10 12  4  0
 10 22  4  0
 11 20  4  0
 11 21  4  0
 12 23  1  0
 13 20  4  0
 13 29  4  0
 14 17  4  0
 14 28  4  0
 15 25  2  0
 16 27  4  0
 17 18  4  0
 20 27  1  0
 24 27  4  0
 26 28  4  0
M  END
$$$$

 Created by Python create_sdf_string function

 29 33  0  0  0  0  0  0  0  0999 V2000
    8.8270   -7.0288   18.4251 C   0  0  0  0  0  0  0  0  0  0  0  0
    9.1576   -4.6236   15.8860 O   0  0  0  0  0  0  0  0  0  0  0  0
    9.1509   -5.9108   17.7177 C   0  0  0  0  0  0  0  0  0  0  0  0
    3.6373   -9.5349   16.0582 N   0  0  0  0  0  0  0  0  0  0  0  0
    9.9275   -4.8001   18.0438 N   0  0  0  0  0  0  0  0  0  0  0  0
    8.5908   -5.7425   16.4412 C   0  0  0  0  0  0  0  0  0  0  0  0
   10.5993   -4.8981   21.6068 C   0  0  0  0  0  0  0  0  0  0  0  0
   10.4258   -3.0106   23.0998 C   0  0  0  0  0  0  0  0  0  0  0  0
   10.2148   -3.4364   25.4200 C   0  0  0  0  0  0  0  0  0  0  0  0
    9.7853   -1.1840   24.4927 C   0  0  0  0  0  0  0  0  0  0  0  0
    5.0276   -8.5227   17.5352 C   0  0  0  0  0  0  0  0  0  0  0  0
    9.8187   -2.0895   25.5800 C   0  0  0  0  0  0  0  0  0  0  0  0
    5.6473   -8.7216   15.3158 C   0  0  0  0  0  0  0  0  0  0  0  0
   10.7581   -3.1233   19.4720 N   0  0  0  0  0  0  0  0  0  0  0  0
    9.9571   -4.0573   16.8866 C   0  0  0  0  0  0  0  0  0  0  0  0
    7.6213   -6.5618   16.0087 C   0  0  0  0  0  0  0  0  0  0  0  0
   10.8583   -2.6527   20.7222 C   0  0  0  0  0  0  0  0  0  0  0  0
   10.6412   -3.5089   21.7936 C   0  0  0  0  0  0  0  0  0  0  0  0
   10.4972   -3.8968   24.1589 C   0  0  0  0  0  0  0  0  0  0  0  0
    5.9260   -8.2736   16.5517 C   0  0  0  0  0  0  0  0  0  0  0  0
    3.8816   -9.1166   17.2493 C   0  0  0  0  0  0  0  0  0  0  0  0
   10.1297   -1.6575   23.2324 C   0  0  0  0  0  0  0  0  0  0  0  0
    9.4684   -1.6929   26.7263 F   0  0  0  0  0  0  0  0  0  0  0  0
    7.7963   -7.7906   17.9837 C   0  0  0  0  0  0  0  0  0  0  0  0
   10.5884   -3.0725   16.7902 O   0  0  0  0  0  0  0  0  0  0  0  0
   10.4323   -5.3494   20.3516 C   0  0  0  0  0  0  0  0  0  0  0  0
    7.1156   -7.5454   16.8218 C   0  0  0  0  0  0  0  0  0  0  0  0
   10.3885   -4.4388   19.2773 C   0  0  0  0  0  0  0  0  0  0  0  0
    4.5160   -9.3822   15.0841 C   0  0  0  0  0  0  0  0  0  0  0  0
  1  3  4  0
  1 24  4  0
  2  6  4  0
  2 15  4  0
  3  5  4  0
  3  6  4  0
  4 21  4  0
  4 29  4  0
  5 15  4  0
  5 28  1  0
  6 16  4  0
  7 18  4  0
  7 26  4  0
  8 18  1  0
  8 19  4  0
  8 22  4  0
  9 12  4  0
  9 19  4  0
 10 12  4  0
 10 22  4  0
 11 20  4  0
 11 21  4  0
 12 23  1  0
 13 20  4  0
 13 29  4  0
 14 17  4  0
 14 28  4  0
 15 25  2  0
 16 27  4  0
 17 18  4  0
 20 27  1  0
 24 27  4  0
 26 28  4  0
M  END
$$$$

 Created by Python create_sdf_string function

 29 33  0  0  0  0  0  0  0  0999 V2000
    8.8270   -7.0288   18.4251 C   0  0  0  0  0  0  0  0  0  0  0  0
    9.1576   -4.6236   15.8860 O   0  0  0  0  0  0  0  0  0  0  0  0
    9.1509   -5.9108   17.7177 C   0  0  0  0  0  0  0  0  0  0  0  0
    3.6373   -9.5349   16.0582 N   0  0  0  0  0  0  0  0  0  0  0  0
    9.9275   -4.8001   18.0438 N   0  0  0  0  0  0  0  0  0  0  0  0
    8.5908   -5.7425   16.4412 C   0  0  0  0  0  0  0  0  0  0  0  0
   10.5993   -4.8981   21.6068 C   0  0  0  0  0  0  0  0  0  0  0  0
   10.4258   -3.0106   23.0998 C   0  0  0  0  0  0  0  0  0  0  0  0
   10.2148   -3.4364   25.4200 C   0  0  0  0  0  0  0  0  0  0  0  0
    9.7853   -1.1840   24.4927 C   0  0  0  0  0  0  0  0  0  0  0  0
    5.0276   -8.5227   17.5352 C   0  0  0  0  0  0  0  0  0  0  0  0
    9.8187   -2.0895   25.5800 C   0  0  0  0  0  0  0  0  0  0  0  0
    5.6473   -8.7216   15.3158 C   0  0  0  0  0  0  0  0  0  0  0  0
   10.7581   -3.1233   19.4720 N   0  0  0  0  0  0  0  0  0  0  0  0
    9.9571   -4.0573   16.8866 C   0  0  0  0  0  0  0  0  0  0  0  0
    7.6213   -6.5618   16.0087 C   0  0  0  0  0  0  0  0  0  0  0  0
   10.8583   -2.6527   20.7222 C   0  0  0  0  0  0  0  0  0  0  0  0
   10.6412   -3.5089   21.7936 C   0  0  0  0  0  0  0  0  0  0  0  0
   10.4972   -3.8968   24.1589 C   0  0  0  0  0  0  0  0  0  0  0  0
    5.9260   -8.2736   16.5517 C   0  0  0  0  0  0  0  0  0  0  0  0
    3.8816   -9.1166   17.2493 C   0  0  0  0  0  0  0  0  0  0  0  0
   10.1297   -1.6575   23.2324 C   0  0  0  0  0  0  0  0  0  0  0  0
    9.4684   -1.6929   26.7263 F   0  0  0  0  0  0  0  0  0  0  0  0
    7.7963   -7.7906   17.9837 C   0  0  0  0  0  0  0  0  0  0  0  0
   10.5884   -3.0725   16.7902 O   0  0  0  0  0  0  0  0  0  0  0  0
   10.4323   -5.3494   20.3516 C   0  0  0  0  0  0  0  0  0  0  0  0
    7.1156   -7.5454   16.8218 C   0  0  0  0  0  0  0  0  0  0  0  0
   10.3885   -4.4388   19.2773 C   0  0  0  0  0  0  0  0  0  0  0  0
    4.5160   -9.3822   15.0841 C   0  0  0  0  0  0  0  0  0  0  0  0
  1  3  4  0
  1 24  4  0
  2  6  4  0
  2 15  4  0
  3  5  4  0
  3  6  4  0
  4 21  4  0
  4 29  4  0
  5 15  4  0
  5 28  1  0
  6 16  4  0
  7 18  4  0
  7 26  4  0
  8 18  1  0
  8 19  4  0
  8 22  4  0
  9 12  4  0
  9 19  4  0
 10 12  4  0
 10 22  4  0
 11 20  4  0
 11 21  4  0
 12 23  1  0
 13 20  4  0
 13 29  4  0
 14 17  4  0
 14 28  4  0
 15 25  2  0
 16 27  4  0
 17 18  4  0
 20 27  1  0
 24 27  4  0
 26 28  4  0
M  END
$$$$

 Created by Python create_sdf_string function

 29 33  0  0  0  0  0  0  0  0999 V2000
    8.8270   -7.0288   18.4251 C   0  0  0  0  0  0  0  0  0  0  0  0
    9.1576   -4.6236   15.8860 O   0  0  0  0  0  0  0  0  0  0  0  0
    9.1509   -5.9108   17.7177 C   0  0  0  0  0  0  0  0  0  0  0  0
    3.6373   -9.5349   16.0582 N   0  0  0  0  0  0  0  0  0  0  0  0
    9.9275   -4.8001   18.0438 N   0  0  0  0  0  0  0  0  0  0  0  0
    8.5908   -5.7425   16.4412 C   0  0  0  0  0  0  0  0  0  0  0  0
   10.5993   -4.8981   21.6068 C   0  0  0  0  0  0  0  0  0  0  0  0
   10.4258   -3.0106   23.0998 C   0  0  0  0  0  0  0  0  0  0  0  0
   10.2148   -3.4364   25.4200 C   0  0  0  0  0  0  0  0  0  0  0  0
    9.7853   -1.1840   24.4927 C   0  0  0  0  0  0  0  0  0  0  0  0
    5.0276   -8.5227   17.5352 C   0  0  0  0  0  0  0  0  0  0  0  0
    9.8187   -2.0895   25.5800 C   0  0  0  0  0  0  0  0  0  0  0  0
    5.6473   -8.7216   15.3158 C   0  0  0  0  0  0  0  0  0  0  0  0
   10.7581   -3.1233   19.4720 N   0  0  0  0  0  0  0  0  0  0  0  0
    9.9571   -4.0573   16.8866 C   0  0  0  0  0  0  0  0  0  0  0  0
    7.6213   -6.5618   16.0087 C   0  0  0  0  0  0  0  0  0  0  0  0
   10.8583   -2.6527   20.7222 C   0  0  0  0  0  0  0  0  0  0  0  0
   10.6412   -3.5089   21.7936 C   0  0  0  0  0  0  0  0  0  0  0  0
   10.4972   -3.8968   24.1589 C   0  0  0  0  0  0  0  0  0  0  0  0
    5.9260   -8.2736   16.5517 C   0  0  0  0  0  0  0  0  0  0  0  0
    3.8816   -9.1166   17.2493 C   0  0  0  0  0  0  0  0  0  0  0  0
   10.1297   -1.6575   23.2324 C   0  0  0  0  0  0  0  0  0  0  0  0
    9.4684   -1.6929   26.7263 F   0  0  0  0  0  0  0  0  0  0  0  0
    7.7963   -7.7906   17.9837 C   0  0  0  0  0  0  0  0  0  0  0  0
   10.5884   -3.0725   16.7902 O   0  0  0  0  0  0  0  0  0  0  0  0
   10.4323   -5.3494   20.3516 C   0  0  0  0  0  0  0  0  0  0  0  0
    7.1156   -7.5454   16.8218 C   0  0  0  0  0  0  0  0  0  0  0  0
   10.3885   -4.4388   19.2773 C   0  0  0  0  0  0  0  0  0  0  0  0
    4.5160   -9.3822   15.0841 C   0  0  0  0  0  0  0  0  0  0  0  0
  1  3  4  0
  1 24  4  0
  2  6  4  0
  2 15  4  0
  3  5  4  0
  3  6  4  0
  4 21  4  0
  4 29  4  0
  5 15  4  0
  5 28  1  0
  6 16  4  0
  7 18  4  0
  7 26  4  0
  8 18  1  0
  8 19  4  0
  8 22  4  0
  9 12  4  0
  9 19  4  0
 10 12  4  0
 10 22  4  0
 11 20  4  0
 11 21  4  0
 12 23  1  0
 13 20  4  0
 13 29  4  0
 14 17  4  0
 14 28  4  0
 15 25  2  0
 16 27  4  0
 17 18  4  0
 20 27  1  0
 24 27  4  0
 26 28  4  0
M  END
$$$$

 Created by Python create_sdf_string function

 29 33  0  0  0  0  0  0  0  0999 V2000
    8.8270   -7.0288   18.4251 C   0  0  0  0  0  0  0  0  0  0  0  0
    9.1576   -4.6236   15.8860 O   0  0  0  0  0  0  0  0  0  0  0  0
    9.1509   -5.9108   17.7177 C   0  0  0  0  0  0  0  0  0  0  0  0
    3.6373   -9.5349   16.0582 N   0  0  0  0  0  0  0  0  0  0  0  0
    9.9275   -4.8001   18.0438 N   0  0  0  0  0  0  0  0  0  0  0  0
    8.5908   -5.7425   16.4412 C   0  0  0  0  0  0  0  0  0  0  0  0
   10.5993   -4.8981   21.6068 C   0  0  0  0  0  0  0  0  0  0  0  0
   10.4258   -3.0106   23.0998 C   0  0  0  0  0  0  0  0  0  0  0  0
   10.2148   -3.4364   25.4200 C   0  0  0  0  0  0  0  0  0  0  0  0
    9.7853   -1.1840   24.4927 C   0  0  0  0  0  0  0  0  0  0  0  0
    5.0276   -8.5227   17.5352 C   0  0  0  0  0  0  0  0  0  0  0  0
    9.8187   -2.0895   25.5800 C   0  0  0  0  0  0  0  0  0  0  0  0
    5.6473   -8.7216   15.3158 C   0  0  0  0  0  0  0  0  0  0  0  0
   10.7581   -3.1233   19.4720 N   0  0  0  0  0  0  0  0  0  0  0  0
    9.9571   -4.0573   16.8866 C   0  0  0  0  0  0  0  0  0  0  0  0
    7.6213   -6.5618   16.0087 C   0  0  0  0  0  0  0  0  0  0  0  0
   10.8583   -2.6527   20.7222 C   0  0  0  0  0  0  0  0  0  0  0  0
   10.6412   -3.5089   21.7936 C   0  0  0  0  0  0  0  0  0  0  0  0
   10.4972   -3.8968   24.1589 C   0  0  0  0  0  0  0  0  0  0  0  0
    5.9260   -8.2736   16.5517 C   0  0  0  0  0  0  0  0  0  0  0  0
    3.8816   -9.1166   17.2493 C   0  0  0  0  0  0  0  0  0  0  0  0
   10.1297   -1.6575   23.2324 C   0  0  0  0  0  0  0  0  0  0  0  0
    9.4684   -1.6929   26.7263 F   0  0  0  0  0  0  0  0  0  0  0  0
    7.7963   -7.7906   17.9837 C   0  0  0  0  0  0  0  0  0  0  0  0
   10.5884   -3.0725   16.7902 O   0  0  0  0  0  0  0  0  0  0  0  0
   10.4323   -5.3494   20.3516 C   0  0  0  0  0  0  0  0  0  0  0  0
    7.1156   -7.5454   16.8218 C   0  0  0  0  0  0  0  0  0  0  0  0
   10.3885   -4.4388   19.2773 C   0  0  0  0  0  0  0  0  0  0  0  0
    4.5160   -9.3822   15.0841 C   0  0  0  0  0  0  0  0  0  0  0  0
  1  3  4  0
  1 24  4  0
  2  6  4  0
  2 15  4  0
  3  5  4  0
  3  6  4  0
  4 21  4  0
  4 29  4  0
  5 15  4  0
  5 28  1  0
  6 16  4  0
  7 18  4  0
  7 26  4  0
  8 18  1  0
  8 19  4  0
  8 22  4  0
  9 12  4  0
  9 19  4  0
 10 12  4  0
 10 22  4  0
 11 20  4  0
 11 21  4  0
 12 23  1  0
 13 20  4  0
 13 29  4  0
 14 17  4  0
 14 28  4  0
 15 25  2  0
 16 27  4  0
 17 18  4  0
 20 27  1  0
 24 27  4  0
 26 28  4  0
M  END
$$$$

 Created by Python create_sdf_string function

 29 33  0  0  0  0  0  0  0  0999 V2000
    8.8270   -7.0288   18.4251 C   0  0  0  0  0  0  0  0  0  0  0  0
    9.1576   -4.6236   15.8860 O   0  0  0  0  0  0  0  0  0  0  0  0
    9.1509   -5.9108   17.7177 C   0  0  0  0  0  0  0  0  0  0  0  0
    3.6373   -9.5349   16.0582 N   0  0  0  0  0  0  0  0  0  0  0  0
    9.9275   -4.8001   18.0438 N   0  0  0  0  0  0  0  0  0  0  0  0
    8.5908   -5.7425   16.4412 C   0  0  0  0  0  0  0  0  0  0  0  0
   10.5993   -4.8981   21.6068 C   0  0  0  0  0  0  0  0  0  0  0  0
   10.4258   -3.0106   23.0998 C   0  0  0  0  0  0  0  0  0  0  0  0
   10.2148   -3.4364   25.4200 C   0  0  0  0  0  0  0  0  0  0  0  0
    9.7853   -1.1840   24.4927 C   0  0  0  0  0  0  0  0  0  0  0  0
    5.0276   -8.5227   17.5352 C   0  0  0  0  0  0  0  0  0  0  0  0
    9.8187   -2.0895   25.5800 C   0  0  0  0  0  0  0  0  0  0  0  0
    5.6473   -8.7216   15.3158 C   0  0  0  0  0  0  0  0  0  0  0  0
   10.7581   -3.1233   19.4720 N   0  0  0  0  0  0  0  0  0  0  0  0
    9.9571   -4.0573   16.8866 C   0  0  0  0  0  0  0  0  0  0  0  0
    7.6213   -6.5618   16.0087 C   0  0  0  0  0  0  0  0  0  0  0  0
   10.8583   -2.6527   20.7222 C   0  0  0  0  0  0  0  0  0  0  0  0
   10.6412   -3.5089   21.7936 C   0  0  0  0  0  0  0  0  0  0  0  0
   10.4972   -3.8968   24.1589 C   0  0  0  0  0  0  0  0  0  0  0  0
    5.9260   -8.2736   16.5517 C   0  0  0  0  0  0  0  0  0  0  0  0
    3.8816   -9.1166   17.2493 C   0  0  0  0  0  0  0  0  0  0  0  0
   10.1297   -1.6575   23.2324 C   0  0  0  0  0  0  0  0  0  0  0  0
    9.4684   -1.6929   26.7263 F   0  0  0  0  0  0  0  0  0  0  0  0
    7.7963   -7.7906   17.9837 C   0  0  0  0  0  0  0  0  0  0  0  0
   10.5884   -3.0725   16.7902 O   0  0  0  0  0  0  0  0  0  0  0  0
   10.4323   -5.3494   20.3516 C   0  0  0  0  0  0  0  0  0  0  0  0
    7.1156   -7.5454   16.8218 C   0  0  0  0  0  0  0  0  0  0  0  0
   10.3885   -4.4388   19.2773 C   0  0  0  0  0  0  0  0  0  0  0  0
    4.5160   -9.3822   15.0841 C   0  0  0  0  0  0  0  0  0  0  0  0
  1  3  4  0
  1 24  4  0
  2  6  4  0
  2 15  4  0
  3  5  4  0
  3  6  4  0
  4 21  4  0
  4 29  4  0
  5 15  4  0
  5 28  1  0
  6 16  4  0
  7 18  4  0
  7 26  4  0
  8 18  1  0
  8 19  4  0
  8 22  4  0
  9 12  4  0
  9 19  4  0
 10 12  4  0
 10 22  4  0
 11 20  4  0
 11 21  4  0
 12 23  1  0
 13 20  4  0
 13 29  4  0
 14 17  4  0
 14 28  4  0
 15 25  2  0
 16 27  4  0
 17 18  4  0
 20 27  1  0
 24 27  4  0
 26 28  4  0
M  END
$$$$

 Created by Python create_sdf_string function

 29 33  0  0  0  0  0  0  0  0999 V2000
    8.8270   -7.0288   18.4251 C   0  0  0  0  0  0  0  0  0  0  0  0
    9.1576   -4.6236   15.8860 O   0  0  0  0  0  0  0  0  0  0  0  0
    9.1509   -5.9108   17.7177 C   0  0  0  0  0  0  0  0  0  0  0  0
    3.6373   -9.5349   16.0582 N   0  0  0  0  0  0  0  0  0  0  0  0
    9.9275   -4.8001   18.0438 N   0  0  0  0  0  0  0  0  0  0  0  0
    8.5908   -5.7425   16.4412 C   0  0  0  0  0  0  0  0  0  0  0  0
   10.5993   -4.8981   21.6068 C   0  0  0  0  0  0  0  0  0  0  0  0
   10.4258   -3.0106   23.0998 C   0  0  0  0  0  0  0  0  0  0  0  0
   10.2148   -3.4364   25.4200 C   0  0  0  0  0  0  0  0  0  0  0  0
    9.7853   -1.1840   24.4927 C   0  0  0  0  0  0  0  0  0  0  0  0
    5.0276   -8.5227   17.5352 C   0  0  0  0  0  0  0  0  0  0  0  0
    9.8187   -2.0895   25.5800 C   0  0  0  0  0  0  0  0  0  0  0  0
    5.6473   -8.7216   15.3158 C   0  0  0  0  0  0  0  0  0  0  0  0
   10.7581   -3.1233   19.4720 N   0  0  0  0  0  0  0  0  0  0  0  0
    9.9571   -4.0573   16.8866 C   0  0  0  0  0  0  0  0  0  0  0  0
    7.6213   -6.5618   16.0087 C   0  0  0  0  0  0  0  0  0  0  0  0
   10.8583   -2.6527   20.7222 C   0  0  0  0  0  0  0  0  0  0  0  0
   10.6412   -3.5089   21.7936 C   0  0  0  0  0  0  0  0  0  0  0  0
   10.4972   -3.8968   24.1589 C   0  0  0  0  0  0  0  0  0  0  0  0
    5.9260   -8.2736   16.5517 C   0  0  0  0  0  0  0  0  0  0  0  0
    3.8816   -9.1166   17.2493 C   0  0  0  0  0  0  0  0  0  0  0  0
   10.1297   -1.6575   23.2324 C   0  0  0  0  0  0  0  0  0  0  0  0
    9.4684   -1.6929   26.7263 F   0  0  0  0  0  0  0  0  0  0  0  0
    7.7963   -7.7906   17.9837 C   0  0  0  0  0  0  0  0  0  0  0  0
   10.5884   -3.0725   16.7902 O   0  0  0  0  0  0  0  0  0  0  0  0
   10.4323   -5.3494   20.3516 C   0  0  0  0  0  0  0  0  0  0  0  0
    7.1156   -7.5454   16.8218 C   0  0  0  0  0  0  0  0  0  0  0  0
   10.3885   -4.4388   19.2773 C   0  0  0  0  0  0  0  0  0  0  0  0
    4.5160   -9.3822   15.0841 C   0  0  0  0  0  0  0  0  0  0  0  0
  1  3  4  0
  1 24  4  0
  2  6  4  0
  2 15  4  0
  3  5  4  0
  3  6  4  0
  4 21  4  0
  4 29  4  0
  5 15  4  0
  5 28  1  0
  6 16  4  0
  7 18  4  0
  7 26  4  0
  8 18  1  0
  8 19  4  0
  8 22  4  0
  9 12  4  0
  9 19  4  0
 10 12  4  0
 10 22  4  0
 11 20  4  0
 11 21  4  0
 12 23  1  0
 13 20  4  0
 13 29  4  0
 14 17  4  0
 14 28  4  0
 15 25  2  0
 16 27  4  0
 17 18  4  0
 20 27  1  0
 24 27  4  0
 26 28  4  0
M  END
$$$$

 Created by Python create_sdf_string function

 29 33  0  0  0  0  0  0  0  0999 V2000
    8.8270   -7.0288   18.4251 C   0  0  0  0  0  0  0  0  0  0  0  0
    9.1576   -4.6236   15.8860 O   0  0  0  0  0  0  0  0  0  0  0  0
    9.1509   -5.9108   17.7177 C   0  0  0  0  0  0  0  0  0  0  0  0
    3.6373   -9.5349   16.0582 N   0  0  0  0  0  0  0  0  0  0  0  0
    9.9275   -4.8001   18.0438 N   0  0  0  0  0  0  0  0  0  0  0  0
    8.5908   -5.7425   16.4412 C   0  0  0  0  0  0  0  0  0  0  0  0
   10.5993   -4.8981   21.6068 C   0  0  0  0  0  0  0  0  0  0  0  0
   10.4258   -3.0106   23.0998 C   0  0  0  0  0  0  0  0  0  0  0  0
   10.2148   -3.4364   25.4200 C   0  0  0  0  0  0  0  0  0  0  0  0
    9.7853   -1.1840   24.4927 C   0  0  0  0  0  0  0  0  0  0  0  0
    5.0276   -8.5227   17.5352 C   0  0  0  0  0  0  0  0  0  0  0  0
    9.8187   -2.0895   25.5800 C   0  0  0  0  0  0  0  0  0  0  0  0
    5.6473   -8.7216   15.3158 C   0  0  0  0  0  0  0  0  0  0  0  0
   10.7581   -3.1233   19.4720 N   0  0  0  0  0  0  0  0  0  0  0  0
    9.9571   -4.0573   16.8866 C   0  0  0  0  0  0  0  0  0  0  0  0
    7.6213   -6.5618   16.0087 C   0  0  0  0  0  0  0  0  0  0  0  0
   10.8583   -2.6527   20.7222 C   0  0  0  0  0  0  0  0  0  0  0  0
   10.6412   -3.5089   21.7936 C   0  0  0  0  0  0  0  0  0  0  0  0
   10.4972   -3.8968   24.1589 C   0  0  0  0  0  0  0  0  0  0  0  0
    5.9260   -8.2736   16.5517 C   0  0  0  0  0  0  0  0  0  0  0  0
    3.8816   -9.1166   17.2493 C   0  0  0  0  0  0  0  0  0  0  0  0
   10.1297   -1.6575   23.2324 C   0  0  0  0  0  0  0  0  0  0  0  0
    9.4684   -1.6929   26.7263 F   0  0  0  0  0  0  0  0  0  0  0  0
    7.7963   -7.7906   17.9837 C   0  0  0  0  0  0  0  0  0  0  0  0
   10.5884   -3.0725   16.7902 O   0  0  0  0  0  0  0  0  0  0  0  0
   10.4323   -5.3494   20.3516 C   0  0  0  0  0  0  0  0  0  0  0  0
    7.1156   -7.5454   16.8218 C   0  0  0  0  0  0  0  0  0  0  0  0
   10.3885   -4.4388   19.2773 C   0  0  0  0  0  0  0  0  0  0  0  0
    4.5160   -9.3822   15.0841 C   0  0  0  0  0  0  0  0  0  0  0  0
  1  3  4  0
  1 24  4  0
  2  6  4  0
  2 15  4  0
  3  5  4  0
  3  6  4  0
  4 21  4  0
  4 29  4  0
  5 15  4  0
  5 28  1  0
  6 16  4  0
  7 18  4  0
  7 26  4  0
  8 18  1  0
  8 19  4  0
  8 22  4  0
  9 12  4  0
  9 19  4  0
 10 12  4  0
 10 22  4  0
 11 20  4  0
 11 21  4  0
 12 23  1  0
 13 20  4  0
 13 29  4  0
 14 17  4  0
 14 28  4  0
 15 25  2  0
 16 27  4  0
 17 18  4  0
 20 27  1  0
 24 27  4  0
 26 28  4  0
M  END
$$$$

 Created by Python create_sdf_string function

 29 33  0  0  0  0  0  0  0  0999 V2000
    8.8270   -7.0288   18.4251 C   0  0  0  0  0  0  0  0  0  0  0  0
    9.1576   -4.6236   15.8860 O   0  0  0  0  0  0  0  0  0  0  0  0
    9.1509   -5.9108   17.7177 C   0  0  0  0  0  0  0  0  0  0  0  0
    3.6373   -9.5349   16.0582 N   0  0  0  0  0  0  0  0  0  0  0  0
    9.9275   -4.8001   18.0438 N   0  0  0  0  0  0  0  0  0  0  0  0
    8.5908   -5.7425   16.4412 C   0  0  0  0  0  0  0  0  0  0  0  0
   10.5993   -4.8981   21.6068 C   0  0  0  0  0  0  0  0  0  0  0  0
   10.4258   -3.0106   23.0998 C   0  0  0  0  0  0  0  0  0  0  0  0
   10.2148   -3.4364   25.4200 C   0  0  0  0  0  0  0  0  0  0  0  0
    9.7853   -1.1840   24.4927 C   0  0  0  0  0  0  0  0  0  0  0  0
    5.0276   -8.5227   17.5352 C   0  0  0  0  0  0  0  0  0  0  0  0
    9.8187   -2.0895   25.5800 C   0  0  0  0  0  0  0  0  0  0  0  0
    5.6473   -8.7216   15.3158 C   0  0  0  0  0  0  0  0  0  0  0  0
   10.7581   -3.1233   19.4720 N   0  0  0  0  0  0  0  0  0  0  0  0
    9.9571   -4.0573   16.8866 C   0  0  0  0  0  0  0  0  0  0  0  0
    7.6213   -6.5618   16.0087 C   0  0  0  0  0  0  0  0  0  0  0  0
   10.8583   -2.6527   20.7222 C   0  0  0  0  0  0  0  0  0  0  0  0
   10.6412   -3.5089   21.7936 C   0  0  0  0  0  0  0  0  0  0  0  0
   10.4972   -3.8968   24.1589 C   0  0  0  0  0  0  0  0  0  0  0  0
    5.9260   -8.2736   16.5517 C   0  0  0  0  0  0  0  0  0  0  0  0
    3.8816   -9.1166   17.2493 C   0  0  0  0  0  0  0  0  0  0  0  0
   10.1297   -1.6575   23.2324 C   0  0  0  0  0  0  0  0  0  0  0  0
    9.4684   -1.6929   26.7263 F   0  0  0  0  0  0  0  0  0  0  0  0
    7.7963   -7.7906   17.9837 C   0  0  0  0  0  0  0  0  0  0  0  0
   10.5884   -3.0725   16.7902 O   0  0  0  0  0  0  0  0  0  0  0  0
   10.4323   -5.3494   20.3516 C   0  0  0  0  0  0  0  0  0  0  0  0
    7.1156   -7.5454   16.8218 C   0  0  0  0  0  0  0  0  0  0  0  0
   10.3885   -4.4388   19.2773 C   0  0  0  0  0  0  0  0  0  0  0  0
    4.5160   -9.3822   15.0841 C   0  0  0  0  0  0  0  0  0  0  0  0
  1  3  4  0
  1 24  4  0
  2  6  4  0
  2 15  4  0
  3  5  4  0
  3  6  4  0
  4 21  4  0
  4 29  4  0
  5 15  4  0
  5 28  1  0
  6 16  4  0
  7 18  4  0
  7 26  4  0
  8 18  1  0
  8 19  4  0
  8 22  4  0
  9 12  4  0
  9 19  4  0
 10 12  4  0
 10 22  4  0
 11 20  4  0
 11 21  4  0
 12 23  1  0
 13 20  4  0
 13 29  4  0
 14 17  4  0
 14 28  4  0
 15 25  2  0
 16 27  4  0
 17 18  4  0
 20 27  1  0
 24 27  4  0
 26 28  4  0
M  END
$$$$

 Created by Python create_sdf_string function

 29 33  0  0  0  0  0  0  0  0999 V2000
    8.8270   -7.0288   18.4251 C   0  0  0  0  0  0  0  0  0  0  0  0
    9.1576   -4.6236   15.8860 O   0  0  0  0  0  0  0  0  0  0  0  0
    9.1509   -5.9108   17.7177 C   0  0  0  0  0  0  0  0  0  0  0  0
    3.6373   -9.5349   16.0582 N   0  0  0  0  0  0  0  0  0  0  0  0
    9.9275   -4.8001   18.0438 N   0  0  0  0  0  0  0  0  0  0  0  0
    8.5908   -5.7425   16.4412 C   0  0  0  0  0  0  0  0  0  0  0  0
   10.5993   -4.8981   21.6068 C   0  0  0  0  0  0  0  0  0  0  0  0
   10.4258   -3.0106   23.0998 C   0  0  0  0  0  0  0  0  0  0  0  0
   10.2148   -3.4364   25.4200 C   0  0  0  0  0  0  0  0  0  0  0  0
    9.7853   -1.1840   24.4927 C   0  0  0  0  0  0  0  0  0  0  0  0
    5.0276   -8.5227   17.5352 C   0  0  0  0  0  0  0  0  0  0  0  0
    9.8187   -2.0895   25.5800 C   0  0  0  0  0  0  0  0  0  0  0  0
    5.6473   -8.7216   15.3158 C   0  0  0  0  0  0  0  0  0  0  0  0
   10.7581   -3.1233   19.4720 N   0  0  0  0  0  0  0  0  0  0  0  0
    9.9571   -4.0573   16.8866 C   0  0  0  0  0  0  0  0  0  0  0  0
    7.6213   -6.5618   16.0087 C   0  0  0  0  0  0  0  0  0  0  0  0
   10.8583   -2.6527   20.7222 C   0  0  0  0  0  0  0  0  0  0  0  0
   10.6412   -3.5089   21.7936 C   0  0  0  0  0  0  0  0  0  0  0  0
   10.4972   -3.8968   24.1589 C   0  0  0  0  0  0  0  0  0  0  0  0
    5.9260   -8.2736   16.5517 C   0  0  0  0  0  0  0  0  0  0  0  0
    3.8816   -9.1166   17.2493 C   0  0  0  0  0  0  0  0  0  0  0  0
   10.1297   -1.6575   23.2324 C   0  0  0  0  0  0  0  0  0  0  0  0
    9.4684   -1.6929   26.7263 F   0  0  0  0  0  0  0  0  0  0  0  0
    7.7963   -7.7906   17.9837 C   0  0  0  0  0  0  0  0  0  0  0  0
   10.5884   -3.0725   16.7902 O   0  0  0  0  0  0  0  0  0  0  0  0
   10.4323   -5.3494   20.3516 C   0  0  0  0  0  0  0  0  0  0  0  0
    7.1156   -7.5454   16.8218 C   0  0  0  0  0  0  0  0  0  0  0  0
   10.3885   -4.4388   19.2773 C   0  0  0  0  0  0  0  0  0  0  0  0
    4.5160   -9.3822   15.0841 C   0  0  0  0  0  0  0  0  0  0  0  0
  1  3  4  0
  1 24  4  0
  2  6  4  0
  2 15  4  0
  3  5  4  0
  3  6  4  0
  4 21  4  0
  4 29  4  0
  5 15  4  0
  5 28  1  0
  6 16  4  0
  7 18  4  0
  7 26  4  0
  8 18  1  0
  8 19  4  0
  8 22  4  0
  9 12  4  0
  9 19  4  0
 10 12  4  0
 10 22  4  0
 11 20  4  0
 11 21  4  0
 12 23  1  0
 13 20  4  0
 13 29  4  0
 14 17  4  0
 14 28  4  0
 15 25  2  0
 16 27  4  0
 17 18  4  0
 20 27  1  0
 24 27  4  0
 26 28  4  0
M  END
$$$$

 Created by Python create_sdf_string function

 29 33  0  0  0  0  0  0  0  0999 V2000
    8.8270   -7.0288   18.4251 C   0  0  0  0  0  0  0  0  0  0  0  0
    9.1576   -4.6236   15.8860 O   0  0  0  0  0  0  0  0  0  0  0  0
    9.1509   -5.9108   17.7177 C   0  0  0  0  0  0  0  0  0  0  0  0
    3.6373   -9.5349   16.0582 N   0  0  0  0  0  0  0  0  0  0  0  0
    9.9275   -4.8001   18.0438 N   0  0  0  0  0  0  0  0  0  0  0  0
    8.5908   -5.7425   16.4412 C   0  0  0  0  0  0  0  0  0  0  0  0
   10.5993   -4.8981   21.6068 C   0  0  0  0  0  0  0  0  0  0  0  0
   10.4258   -3.0106   23.0998 C   0  0  0  0  0  0  0  0  0  0  0  0
   10.2148   -3.4364   25.4200 C   0  0  0  0  0  0  0  0  0  0  0  0
    9.7853   -1.1840   24.4927 C   0  0  0  0  0  0  0  0  0  0  0  0
    5.0276   -8.5227   17.5352 C   0  0  0  0  0  0  0  0  0  0  0  0
    9.8187   -2.0895   25.5800 C   0  0  0  0  0  0  0  0  0  0  0  0
    5.6473   -8.7216   15.3158 C   0  0  0  0  0  0  0  0  0  0  0  0
   10.7581   -3.1233   19.4720 N   0  0  0  0  0  0  0  0  0  0  0  0
    9.9571   -4.0573   16.8866 C   0  0  0  0  0  0  0  0  0  0  0  0
    7.6213   -6.5618   16.0087 C   0  0  0  0  0  0  0  0  0  0  0  0
   10.8583   -2.6527   20.7222 C   0  0  0  0  0  0  0  0  0  0  0  0
   10.6412   -3.5089   21.7936 C   0  0  0  0  0  0  0  0  0  0  0  0
   10.4972   -3.8968   24.1589 C   0  0  0  0  0  0  0  0  0  0  0  0
    5.9260   -8.2736   16.5517 C   0  0  0  0  0  0  0  0  0  0  0  0
    3.8816   -9.1166   17.2493 C   0  0  0  0  0  0  0  0  0  0  0  0
   10.1297   -1.6575   23.2324 C   0  0  0  0  0  0  0  0  0  0  0  0
    9.4684   -1.6929   26.7263 F   0  0  0  0  0  0  0  0  0  0  0  0
    7.7963   -7.7906   17.9837 C   0  0  0  0  0  0  0  0  0  0  0  0
   10.5884   -3.0725   16.7902 O   0  0  0  0  0  0  0  0  0  0  0  0
   10.4323   -5.3494   20.3516 C   0  0  0  0  0  0  0  0  0  0  0  0
    7.1156   -7.5454   16.8218 C   0  0  0  0  0  0  0  0  0  0  0  0
   10.3885   -4.4388   19.2773 C   0  0  0  0  0  0  0  0  0  0  0  0
    4.5160   -9.3822   15.0841 C   0  0  0  0  0  0  0  0  0  0  0  0
  1  3  4  0
  1 24  4  0
  2  6  4  0
  2 15  4  0
  3  5  4  0
  3  6  4  0
  4 21  4  0
  4 29  4  0
  5 15  4  0
  5 28  1  0
  6 16  4  0
  7 18  4  0
  7 26  4  0
  8 18  1  0
  8 19  4  0
  8 22  4  0
  9 12  4  0
  9 19  4  0
 10 12  4  0
 10 22  4  0
 11 20  4  0
 11 21  4  0
 12 23  1  0
 13 20  4  0
 13 29  4  0
 14 17  4  0
 14 28  4  0
 15 25  2  0
 16 27  4  0
 17 18  4  0
 20 27  1  0
 24 27  4  0
 26 28  4  0
M  END
$$$$

 Created by Python create_sdf_string function

 29 33  0  0  0  0  0  0  0  0999 V2000
    8.8270   -7.0288   18.4251 C   0  0  0  0  0  0  0  0  0  0  0  0
    9.1576   -4.6236   15.8860 O   0  0  0  0  0  0  0  0  0  0  0  0
    9.1509   -5.9108   17.7177 C   0  0  0  0  0  0  0  0  0  0  0  0
    3.6373   -9.5349   16.0582 N   0  0  0  0  0  0  0  0  0  0  0  0
    9.9275   -4.8001   18.0438 N   0  0  0  0  0  0  0  0  0  0  0  0
    8.5908   -5.7425   16.4412 C   0  0  0  0  0  0  0  0  0  0  0  0
   10.5993   -4.8981   21.6068 C   0  0  0  0  0  0  0  0  0  0  0  0
   10.4258   -3.0106   23.0998 C   0  0  0  0  0  0  0  0  0  0  0  0
   10.2148   -3.4364   25.4200 C   0  0  0  0  0  0  0  0  0  0  0  0
    9.7853   -1.1840   24.4927 C   0  0  0  0  0  0  0  0  0  0  0  0
    5.0276   -8.5227   17.5352 C   0  0  0  0  0  0  0  0  0  0  0  0
    9.8187   -2.0895   25.5800 C   0  0  0  0  0  0  0  0  0  0  0  0
    5.6473   -8.7216   15.3158 C   0  0  0  0  0  0  0  0  0  0  0  0
   10.7581   -3.1233   19.4720 N   0  0  0  0  0  0  0  0  0  0  0  0
    9.9571   -4.0573   16.8866 C   0  0  0  0  0  0  0  0  0  0  0  0
    7.6213   -6.5618   16.0087 C   0  0  0  0  0  0  0  0  0  0  0  0
   10.8583   -2.6527   20.7222 C   0  0  0  0  0  0  0  0  0  0  0  0
   10.6412   -3.5089   21.7936 C   0  0  0  0  0  0  0  0  0  0  0  0
   10.4972   -3.8968   24.1589 C   0  0  0  0  0  0  0  0  0  0  0  0
    5.9260   -8.2736   16.5517 C   0  0  0  0  0  0  0  0  0  0  0  0
    3.8816   -9.1166   17.2493 C   0  0  0  0  0  0  0  0  0  0  0  0
   10.1297   -1.6575   23.2324 C   0  0  0  0  0  0  0  0  0  0  0  0
    9.4684   -1.6929   26.7263 F   0  0  0  0  0  0  0  0  0  0  0  0
    7.7963   -7.7906   17.9837 C   0  0  0  0  0  0  0  0  0  0  0  0
   10.5884   -3.0725   16.7902 O   0  0  0  0  0  0  0  0  0  0  0  0
   10.4323   -5.3494   20.3516 C   0  0  0  0  0  0  0  0  0  0  0  0
    7.1156   -7.5454   16.8218 C   0  0  0  0  0  0  0  0  0  0  0  0
   10.3885   -4.4388   19.2773 C   0  0  0  0  0  0  0  0  0  0  0  0
    4.5160   -9.3822   15.0841 C   0  0  0  0  0  0  0  0  0  0  0  0
  1  3  4  0
  1 24  4  0
  2  6  4  0
  2 15  4  0
  3  5  4  0
  3  6  4  0
  4 21  4  0
  4 29  4  0
  5 15  4  0
  5 28  1  0
  6 16  4  0
  7 18  4  0
  7 26  4  0
  8 18  1  0
  8 19  4  0
  8 22  4  0
  9 12  4  0
  9 19  4  0
 10 12  4  0
 10 22  4  0
 11 20  4  0
 11 21  4  0
 12 23  1  0
 13 20  4  0
 13 29  4  0
 14 17  4  0
 14 28  4  0
 15 25  2  0
 16 27  4  0
 17 18  4  0
 20 27  1  0
 24 27  4  0
 26 28  4  0
M  END
$$$$

 Created by Python create_sdf_string function

 29 33  0  0  0  0  0  0  0  0999 V2000
    8.8270   -7.0288   18.4251 C   0  0  0  0  0  0  0  0  0  0  0  0
    9.1576   -4.6236   15.8860 O   0  0  0  0  0  0  0  0  0  0  0  0
    9.1509   -5.9108   17.7177 C   0  0  0  0  0  0  0  0  0  0  0  0
    3.6373   -9.5349   16.0582 N   0  0  0  0  0  0  0  0  0  0  0  0
    9.9275   -4.8001   18.0438 N   0  0  0  0  0  0  0  0  0  0  0  0
    8.5908   -5.7425   16.4412 C   0  0  0  0  0  0  0  0  0  0  0  0
   10.5993   -4.8981   21.6068 C   0  0  0  0  0  0  0  0  0  0  0  0
   10.4258   -3.0106   23.0998 C   0  0  0  0  0  0  0  0  0  0  0  0
   10.2148   -3.4364   25.4200 C   0  0  0  0  0  0  0  0  0  0  0  0
    9.7853   -1.1840   24.4927 C   0  0  0  0  0  0  0  0  0  0  0  0
    5.0276   -8.5227   17.5352 C   0  0  0  0  0  0  0  0  0  0  0  0
    9.8187   -2.0895   25.5800 C   0  0  0  0  0  0  0  0  0  0  0  0
    5.6473   -8.7216   15.3158 C   0  0  0  0  0  0  0  0  0  0  0  0
   10.7581   -3.1233   19.4720 N   0  0  0  0  0  0  0  0  0  0  0  0
    9.9571   -4.0573   16.8866 C   0  0  0  0  0  0  0  0  0  0  0  0
    7.6213   -6.5618   16.0087 C   0  0  0  0  0  0  0  0  0  0  0  0
   10.8583   -2.6527   20.7222 C   0  0  0  0  0  0  0  0  0  0  0  0
   10.6412   -3.5089   21.7936 C   0  0  0  0  0  0  0  0  0  0  0  0
   10.4972   -3.8968   24.1589 C   0  0  0  0  0  0  0  0  0  0  0  0
    5.9260   -8.2736   16.5517 C   0  0  0  0  0  0  0  0  0  0  0  0
    3.8816   -9.1166   17.2493 C   0  0  0  0  0  0  0  0  0  0  0  0
   10.1297   -1.6575   23.2324 C   0  0  0  0  0  0  0  0  0  0  0  0
    9.4684   -1.6929   26.7263 F   0  0  0  0  0  0  0  0  0  0  0  0
    7.7963   -7.7906   17.9837 C   0  0  0  0  0  0  0  0  0  0  0  0
   10.5884   -3.0725   16.7902 O   0  0  0  0  0  0  0  0  0  0  0  0
   10.4323   -5.3494   20.3516 C   0  0  0  0  0  0  0  0  0  0  0  0
    7.1156   -7.5454   16.8218 C   0  0  0  0  0  0  0  0  0  0  0  0
   10.3885   -4.4388   19.2773 C   0  0  0  0  0  0  0  0  0  0  0  0
    4.5160   -9.3822   15.0841 C   0  0  0  0  0  0  0  0  0  0  0  0
  1  3  4  0
  1 24  4  0
  2  6  4  0
  2 15  4  0
  3  5  4  0
  3  6  4  0
  4 21  4  0
  4 29  4  0
  5 15  4  0
  5 28  1  0
  6 16  4  0
  7 18  4  0
  7 26  4  0
  8 18  1  0
  8 19  4  0
  8 22  4  0
  9 12  4  0
  9 19  4  0
 10 12  4  0
 10 22  4  0
 11 20  4  0
 11 21  4  0
 12 23  1  0
 13 20  4  0
 13 29  4  0
 14 17  4  0
 14 28  4  0
 15 25  2  0
 16 27  4  0
 17 18  4  0
 20 27  1  0
 24 27  4  0
 26 28  4  0
M  END
$$$$

 Created by Python create_sdf_string function

 29 33  0  0  0  0  0  0  0  0999 V2000
    8.8270   -7.0288   18.4251 C   0  0  0  0  0  0  0  0  0  0  0  0
    9.1576   -4.6236   15.8860 O   0  0  0  0  0  0  0  0  0  0  0  0
    9.1509   -5.9108   17.7177 C   0  0  0  0  0  0  0  0  0  0  0  0
    3.6373   -9.5349   16.0582 N   0  0  0  0  0  0  0  0  0  0  0  0
    9.9275   -4.8001   18.0438 N   0  0  0  0  0  0  0  0  0  0  0  0
    8.5908   -5.7425   16.4412 C   0  0  0  0  0  0  0  0  0  0  0  0
   10.5993   -4.8981   21.6068 C   0  0  0  0  0  0  0  0  0  0  0  0
   10.4258   -3.0106   23.0998 C   0  0  0  0  0  0  0  0  0  0  0  0
   10.2148   -3.4364   25.4200 C   0  0  0  0  0  0  0  0  0  0  0  0
    9.7853   -1.1840   24.4927 C   0  0  0  0  0  0  0  0  0  0  0  0
    5.0276   -8.5227   17.5352 C   0  0  0  0  0  0  0  0  0  0  0  0
    9.8187   -2.0895   25.5800 C   0  0  0  0  0  0  0  0  0  0  0  0
    5.6473   -8.7216   15.3158 C   0  0  0  0  0  0  0  0  0  0  0  0
   10.7581   -3.1233   19.4720 N   0  0  0  0  0  0  0  0  0  0  0  0
    9.9571   -4.0573   16.8866 C   0  0  0  0  0  0  0  0  0  0  0  0
    7.6213   -6.5618   16.0087 C   0  0  0  0  0  0  0  0  0  0  0  0
   10.8583   -2.6527   20.7222 C   0  0  0  0  0  0  0  0  0  0  0  0
   10.6412   -3.5089   21.7936 C   0  0  0  0  0  0  0  0  0  0  0  0
   10.4972   -3.8968   24.1589 C   0  0  0  0  0  0  0  0  0  0  0  0
    5.9260   -8.2736   16.5517 C   0  0  0  0  0  0  0  0  0  0  0  0
    3.8816   -9.1166   17.2493 C   0  0  0  0  0  0  0  0  0  0  0  0
   10.1297   -1.6575   23.2324 C   0  0  0  0  0  0  0  0  0  0  0  0
    9.4684   -1.6929   26.7263 F   0  0  0  0  0  0  0  0  0  0  0  0
    7.7963   -7.7906   17.9837 C   0  0  0  0  0  0  0  0  0  0  0  0
   10.5884   -3.0725   16.7902 O   0  0  0  0  0  0  0  0  0  0  0  0
   10.4323   -5.3494   20.3516 C   0  0  0  0  0  0  0  0  0  0  0  0
    7.1156   -7.5454   16.8218 C   0  0  0  0  0  0  0  0  0  0  0  0
   10.3885   -4.4388   19.2773 C   0  0  0  0  0  0  0  0  0  0  0  0
    4.5160   -9.3822   15.0841 C   0  0  0  0  0  0  0  0  0  0  0  0
  1  3  4  0
  1 24  4  0
  2  6  4  0
  2 15  4  0
  3  5  4  0
  3  6  4  0
  4 21  4  0
  4 29  4  0
  5 15  4  0
  5 28  1  0
  6 16  4  0
  7 18  4  0
  7 26  4  0
  8 18  1  0
  8 19  4  0
  8 22  4  0
  9 12  4  0
  9 19  4  0
 10 12  4  0
 10 22  4  0
 11 20  4  0
 11 21  4  0
 12 23  1  0
 13 20  4  0
 13 29  4  0
 14 17  4  0
 14 28  4  0
 15 25  2  0
 16 27  4  0
 17 18  4  0
 20 27  1  0
 24 27  4  0
 26 28  4  0
M  END
$$$$

 Created by Python create_sdf_string function

 29 33  0  0  0  0  0  0  0  0999 V2000
    8.8270   -7.0288   18.4251 C   0  0  0  0  0  0  0  0  0  0  0  0
    9.1576   -4.6236   15.8860 O   0  0  0  0  0  0  0  0  0  0  0  0
    9.1509   -5.9108   17.7177 C   0  0  0  0  0  0  0  0  0  0  0  0
    3.6373   -9.5349   16.0582 N   0  0  0  0  0  0  0  0  0  0  0  0
    9.9275   -4.8001   18.0438 N   0  0  0  0  0  0  0  0  0  0  0  0
    8.5908   -5.7425   16.4412 C   0  0  0  0  0  0  0  0  0  0  0  0
   10.5993   -4.8981   21.6068 C   0  0  0  0  0  0  0  0  0  0  0  0
   10.4258   -3.0106   23.0998 C   0  0  0  0  0  0  0  0  0  0  0  0
   10.2148   -3.4364   25.4200 C   0  0  0  0  0  0  0  0  0  0  0  0
    9.7853   -1.1840   24.4927 C   0  0  0  0  0  0  0  0  0  0  0  0
    5.0276   -8.5227   17.5352 C   0  0  0  0  0  0  0  0  0  0  0  0
    9.8187   -2.0895   25.5800 C   0  0  0  0  0  0  0  0  0  0  0  0
    5.6473   -8.7216   15.3158 C   0  0  0  0  0  0  0  0  0  0  0  0
   10.7581   -3.1233   19.4720 N   0  0  0  0  0  0  0  0  0  0  0  0
    9.9571   -4.0573   16.8866 C   0  0  0  0  0  0  0  0  0  0  0  0
    7.6213   -6.5618   16.0087 C   0  0  0  0  0  0  0  0  0  0  0  0
   10.8583   -2.6527   20.7222 C   0  0  0  0  0  0  0  0  0  0  0  0
   10.6412   -3.5089   21.7936 C   0  0  0  0  0  0  0  0  0  0  0  0
   10.4972   -3.8968   24.1589 C   0  0  0  0  0  0  0  0  0  0  0  0
    5.9260   -8.2736   16.5517 C   0  0  0  0  0  0  0  0  0  0  0  0
    3.8816   -9.1166   17.2493 C   0  0  0  0  0  0  0  0  0  0  0  0
   10.1297   -1.6575   23.2324 C   0  0  0  0  0  0  0  0  0  0  0  0
    9.4684   -1.6929   26.7263 F   0  0  0  0  0  0  0  0  0  0  0  0
    7.7963   -7.7906   17.9837 C   0  0  0  0  0  0  0  0  0  0  0  0
   10.5884   -3.0725   16.7902 O   0  0  0  0  0  0  0  0  0  0  0  0
   10.4323   -5.3494   20.3516 C   0  0  0  0  0  0  0  0  0  0  0  0
    7.1156   -7.5454   16.8218 C   0  0  0  0  0  0  0  0  0  0  0  0
   10.3885   -4.4388   19.2773 C   0  0  0  0  0  0  0  0  0  0  0  0
    4.5160   -9.3822   15.0841 C   0  0  0  0  0  0  0  0  0  0  0  0
  1  3  4  0
  1 24  4  0
  2  6  4  0
  2 15  4  0
  3  5  4  0
  3  6  4  0
  4 21  4  0
  4 29  4  0
  5 15  4  0
  5 28  1  0
  6 16  4  0
  7 18  4  0
  7 26  4  0
  8 18  1  0
  8 19  4  0
  8 22  4  0
  9 12  4  0
  9 19  4  0
 10 12  4  0
 10 22  4  0
 11 20  4  0
 11 21  4  0
 12 23  1  0
 13 20  4  0
 13 29  4  0
 14 17  4  0
 14 28  4  0
 15 25  2  0
 16 27  4  0
 17 18  4  0
 20 27  1  0
 24 27  4  0
 26 28  4  0
M  END
$$$$

 Created by Python create_sdf_string function

 29 33  0  0  0  0  0  0  0  0999 V2000
    8.8270   -7.0288   18.4251 C   0  0  0  0  0  0  0  0  0  0  0  0
    9.1576   -4.6236   15.8860 O   0  0  0  0  0  0  0  0  0  0  0  0
    9.1509   -5.9108   17.7177 C   0  0  0  0  0  0  0  0  0  0  0  0
    3.6373   -9.5349   16.0582 N   0  0  0  0  0  0  0  0  0  0  0  0
    9.9275   -4.8001   18.0438 N   0  0  0  0  0  0  0  0  0  0  0  0
    8.5908   -5.7425   16.4412 C   0  0  0  0  0  0  0  0  0  0  0  0
   10.5993   -4.8981   21.6068 C   0  0  0  0  0  0  0  0  0  0  0  0
   10.4258   -3.0106   23.0998 C   0  0  0  0  0  0  0  0  0  0  0  0
   10.2148   -3.4364   25.4200 C   0  0  0  0  0  0  0  0  0  0  0  0
    9.7853   -1.1840   24.4927 C   0  0  0  0  0  0  0  0  0  0  0  0
    5.0276   -8.5227   17.5352 C   0  0  0  0  0  0  0  0  0  0  0  0
    9.8187   -2.0895   25.5800 C   0  0  0  0  0  0  0  0  0  0  0  0
    5.6473   -8.7216   15.3158 C   0  0  0  0  0  0  0  0  0  0  0  0
   10.7581   -3.1233   19.4720 N   0  0  0  0  0  0  0  0  0  0  0  0
    9.9571   -4.0573   16.8866 C   0  0  0  0  0  0  0  0  0  0  0  0
    7.6213   -6.5618   16.0087 C   0  0  0  0  0  0  0  0  0  0  0  0
   10.8583   -2.6527   20.7222 C   0  0  0  0  0  0  0  0  0  0  0  0
   10.6412   -3.5089   21.7936 C   0  0  0  0  0  0  0  0  0  0  0  0
   10.4972   -3.8968   24.1589 C   0  0  0  0  0  0  0  0  0  0  0  0
    5.9260   -8.2736   16.5517 C   0  0  0  0  0  0  0  0  0  0  0  0
    3.8816   -9.1166   17.2493 C   0  0  0  0  0  0  0  0  0  0  0  0
   10.1297   -1.6575   23.2324 C   0  0  0  0  0  0  0  0  0  0  0  0
    9.4684   -1.6929   26.7263 F   0  0  0  0  0  0  0  0  0  0  0  0
    7.7963   -7.7906   17.9837 C   0  0  0  0  0  0  0  0  0  0  0  0
   10.5884   -3.0725   16.7902 O   0  0  0  0  0  0  0  0  0  0  0  0
   10.4323   -5.3494   20.3516 C   0  0  0  0  0  0  0  0  0  0  0  0
    7.1156   -7.5454   16.8218 C   0  0  0  0  0  0  0  0  0  0  0  0
   10.3885   -4.4388   19.2773 C   0  0  0  0  0  0  0  0  0  0  0  0
    4.5160   -9.3822   15.0841 C   0  0  0  0  0  0  0  0  0  0  0  0
  1  3  4  0
  1 24  4  0
  2  6  4  0
  2 15  4  0
  3  5  4  0
  3  6  4  0
  4 21  4  0
  4 29  4  0
  5 15  4  0
  5 28  1  0
  6 16  4  0
  7 18  4  0
  7 26  4  0
  8 18  1  0
  8 19  4  0
  8 22  4  0
  9 12  4  0
  9 19  4  0
 10 12  4  0
 10 22  4  0
 11 20  4  0
 11 21  4  0
 12 23  1  0
 13 20  4  0
 13 29  4  0
 14 17  4  0
 14 28  4  0
 15 25  2  0
 16 27  4  0
 17 18  4  0
 20 27  1  0
 24 27  4  0
 26 28  4  0
M  END
$$$$

 Created by Python create_sdf_string function

 29 33  0  0  0  0  0  0  0  0999 V2000
    8.8270   -7.0288   18.4251 C   0  0  0  0  0  0  0  0  0  0  0  0
    9.1576   -4.6236   15.8860 O   0  0  0  0  0  0  0  0  0  0  0  0
    9.1509   -5.9108   17.7177 C   0  0  0  0  0  0  0  0  0  0  0  0
    3.6373   -9.5349   16.0582 N   0  0  0  0  0  0  0  0  0  0  0  0
    9.9275   -4.8001   18.0438 N   0  0  0  0  0  0  0  0  0  0  0  0
    8.5908   -5.7425   16.4412 C   0  0  0  0  0  0  0  0  0  0  0  0
   10.5993   -4.8981   21.6068 C   0  0  0  0  0  0  0  0  0  0  0  0
   10.4258   -3.0106   23.0998 C   0  0  0  0  0  0  0  0  0  0  0  0
   10.2148   -3.4364   25.4200 C   0  0  0  0  0  0  0  0  0  0  0  0
    9.7853   -1.1840   24.4927 C   0  0  0  0  0  0  0  0  0  0  0  0
    5.0276   -8.5227   17.5352 C   0  0  0  0  0  0  0  0  0  0  0  0
    9.8187   -2.0895   25.5800 C   0  0  0  0  0  0  0  0  0  0  0  0
    5.6473   -8.7216   15.3158 C   0  0  0  0  0  0  0  0  0  0  0  0
   10.7581   -3.1233   19.4720 N   0  0  0  0  0  0  0  0  0  0  0  0
    9.9571   -4.0573   16.8866 C   0  0  0  0  0  0  0  0  0  0  0  0
    7.6213   -6.5618   16.0087 C   0  0  0  0  0  0  0  0  0  0  0  0
   10.8583   -2.6527   20.7222 C   0  0  0  0  0  0  0  0  0  0  0  0
   10.6412   -3.5089   21.7936 C   0  0  0  0  0  0  0  0  0  0  0  0
   10.4972   -3.8968   24.1589 C   0  0  0  0  0  0  0  0  0  0  0  0
    5.9260   -8.2736   16.5517 C   0  0  0  0  0  0  0  0  0  0  0  0
    3.8816   -9.1166   17.2493 C   0  0  0  0  0  0  0  0  0  0  0  0
   10.1297   -1.6575   23.2324 C   0  0  0  0  0  0  0  0  0  0  0  0
    9.4684   -1.6929   26.7263 F   0  0  0  0  0  0  0  0  0  0  0  0
    7.7963   -7.7906   17.9837 C   0  0  0  0  0  0  0  0  0  0  0  0
   10.5884   -3.0725   16.7902 O   0  0  0  0  0  0  0  0  0  0  0  0
   10.4323   -5.3494   20.3516 C   0  0  0  0  0  0  0  0  0  0  0  0
    7.1156   -7.5454   16.8218 C   0  0  0  0  0  0  0  0  0  0  0  0
   10.3885   -4.4388   19.2773 C   0  0  0  0  0  0  0  0  0  0  0  0
    4.5160   -9.3822   15.0841 C   0  0  0  0  0  0  0  0  0  0  0  0
  1  3  4  0
  1 24  4  0
  2  6  4  0
  2 15  4  0
  3  5  4  0
  3  6  4  0
  4 21  4  0
  4 29  4  0
  5 15  4  0
  5 28  1  0
  6 16  4  0
  7 18  4  0
  7 26  4  0
  8 18  1  0
  8 19  4  0
  8 22  4  0
  9 12  4  0
  9 19  4  0
 10 12  4  0
 10 22  4  0
 11 20  4  0
 11 21  4  0
 12 23  1  0
 13 20  4  0
 13 29  4  0
 14 17  4  0
 14 28  4  0
 15 25  2  0
 16 27  4  0
 17 18  4  0
 20 27  1  0
 24 27  4  0
 26 28  4  0
M  END
$$$$

 Created by Python create_sdf_string function

 29 33  0  0  0  0  0  0  0  0999 V2000
    8.8270   -7.0288   18.4251 C   0  0  0  0  0  0  0  0  0  0  0  0
    9.1576   -4.6236   15.8860 O   0  0  0  0  0  0  0  0  0  0  0  0
    9.1509   -5.9108   17.7177 C   0  0  0  0  0  0  0  0  0  0  0  0
    3.6373   -9.5349   16.0582 N   0  0  0  0  0  0  0  0  0  0  0  0
    9.9275   -4.8001   18.0438 N   0  0  0  0  0  0  0  0  0  0  0  0
    8.5908   -5.7425   16.4412 C   0  0  0  0  0  0  0  0  0  0  0  0
   10.5993   -4.8981   21.6068 C   0  0  0  0  0  0  0  0  0  0  0  0
   10.4258   -3.0106   23.0998 C   0  0  0  0  0  0  0  0  0  0  0  0
   10.2148   -3.4364   25.4200 C   0  0  0  0  0  0  0  0  0  0  0  0
    9.7853   -1.1840   24.4927 C   0  0  0  0  0  0  0  0  0  0  0  0
    5.0276   -8.5227   17.5352 C   0  0  0  0  0  0  0  0  0  0  0  0
    9.8187   -2.0895   25.5800 C   0  0  0  0  0  0  0  0  0  0  0  0
    5.6473   -8.7216   15.3158 C   0  0  0  0  0  0  0  0  0  0  0  0
   10.7581   -3.1233   19.4720 N   0  0  0  0  0  0  0  0  0  0  0  0
    9.9571   -4.0573   16.8866 C   0  0  0  0  0  0  0  0  0  0  0  0
    7.6213   -6.5618   16.0087 C   0  0  0  0  0  0  0  0  0  0  0  0
   10.8583   -2.6527   20.7222 C   0  0  0  0  0  0  0  0  0  0  0  0
   10.6412   -3.5089   21.7936 C   0  0  0  0  0  0  0  0  0  0  0  0
   10.4972   -3.8968   24.1589 C   0  0  0  0  0  0  0  0  0  0  0  0
    5.9260   -8.2736   16.5517 C   0  0  0  0  0  0  0  0  0  0  0  0
    3.8816   -9.1166   17.2493 C   0  0  0  0  0  0  0  0  0  0  0  0
   10.1297   -1.6575   23.2324 C   0  0  0  0  0  0  0  0  0  0  0  0
    9.4684   -1.6929   26.7263 F   0  0  0  0  0  0  0  0  0  0  0  0
    7.7963   -7.7906   17.9837 C   0  0  0  0  0  0  0  0  0  0  0  0
   10.5884   -3.0725   16.7902 O   0  0  0  0  0  0  0  0  0  0  0  0
   10.4323   -5.3494   20.3516 C   0  0  0  0  0  0  0  0  0  0  0  0
    7.1156   -7.5454   16.8218 C   0  0  0  0  0  0  0  0  0  0  0  0
   10.3885   -4.4388   19.2773 C   0  0  0  0  0  0  0  0  0  0  0  0
    4.5160   -9.3822   15.0841 C   0  0  0  0  0  0  0  0  0  0  0  0
  1  3  4  0
  1 24  4  0
  2  6  4  0
  2 15  4  0
  3  5  4  0
  3  6  4  0
  4 21  4  0
  4 29  4  0
  5 15  4  0
  5 28  1  0
  6 16  4  0
  7 18  4  0
  7 26  4  0
  8 18  1  0
  8 19  4  0
  8 22  4  0
  9 12  4  0
  9 19  4  0
 10 12  4  0
 10 22  4  0
 11 20  4  0
 11 21  4  0
 12 23  1  0
 13 20  4  0
 13 29  4  0
 14 17  4  0
 14 28  4  0
 15 25  2  0
 16 27  4  0
 17 18  4  0
 20 27  1  0
 24 27  4  0
 26 28  4  0
M  END
$$$$

 Created by Python create_sdf_string function

 29 33  0  0  0  0  0  0  0  0999 V2000
    8.8270   -7.0288   18.4251 C   0  0  0  0  0  0  0  0  0  0  0  0
    9.1576   -4.6236   15.8860 O   0  0  0  0  0  0  0  0  0  0  0  0
    9.1509   -5.9108   17.7177 C   0  0  0  0  0  0  0  0  0  0  0  0
    3.6373   -9.5349   16.0582 N   0  0  0  0  0  0  0  0  0  0  0  0
    9.9275   -4.8001   18.0438 N   0  0  0  0  0  0  0  0  0  0  0  0
    8.5908   -5.7425   16.4412 C   0  0  0  0  0  0  0  0  0  0  0  0
   10.5993   -4.8981   21.6068 C   0  0  0  0  0  0  0  0  0  0  0  0
   10.4258   -3.0106   23.0998 C   0  0  0  0  0  0  0  0  0  0  0  0
   10.2148   -3.4364   25.4200 C   0  0  0  0  0  0  0  0  0  0  0  0
    9.7853   -1.1840   24.4927 C   0  0  0  0  0  0  0  0  0  0  0  0
    5.0276   -8.5227   17.5352 C   0  0  0  0  0  0  0  0  0  0  0  0
    9.8187   -2.0895   25.5800 C   0  0  0  0  0  0  0  0  0  0  0  0
    5.6473   -8.7216   15.3158 C   0  0  0  0  0  0  0  0  0  0  0  0
   10.7581   -3.1233   19.4720 N   0  0  0  0  0  0  0  0  0  0  0  0
    9.9571   -4.0573   16.8866 C   0  0  0  0  0  0  0  0  0  0  0  0
    7.6213   -6.5618   16.0087 C   0  0  0  0  0  0  0  0  0  0  0  0
   10.8583   -2.6527   20.7222 C   0  0  0  0  0  0  0  0  0  0  0  0
   10.6412   -3.5089   21.7936 C   0  0  0  0  0  0  0  0  0  0  0  0
   10.4972   -3.8968   24.1589 C   0  0  0  0  0  0  0  0  0  0  0  0
    5.9260   -8.2736   16.5517 C   0  0  0  0  0  0  0  0  0  0  0  0
    3.8816   -9.1166   17.2493 C   0  0  0  0  0  0  0  0  0  0  0  0
   10.1297   -1.6575   23.2324 C   0  0  0  0  0  0  0  0  0  0  0  0
    9.4684   -1.6929   26.7263 F   0  0  0  0  0  0  0  0  0  0  0  0
    7.7963   -7.7906   17.9837 C   0  0  0  0  0  0  0  0  0  0  0  0
   10.5884   -3.0725   16.7902 O   0  0  0  0  0  0  0  0  0  0  0  0
   10.4323   -5.3494   20.3516 C   0  0  0  0  0  0  0  0  0  0  0  0
    7.1156   -7.5454   16.8218 C   0  0  0  0  0  0  0  0  0  0  0  0
   10.3885   -4.4388   19.2773 C   0  0  0  0  0  0  0  0  0  0  0  0
    4.5160   -9.3822   15.0841 C   0  0  0  0  0  0  0  0  0  0  0  0
  1  3  4  0
  1 24  4  0
  2  6  4  0
  2 15  4  0
  3  5  4  0
  3  6  4  0
  4 21  4  0
  4 29  4  0
  5 15  4  0
  5 28  1  0
  6 16  4  0
  7 18  4  0
  7 26  4  0
  8 18  1  0
  8 19  4  0
  8 22  4  0
  9 12  4  0
  9 19  4  0
 10 12  4  0
 10 22  4  0
 11 20  4  0
 11 21  4  0
 12 23  1  0
 13 20  4  0
 13 29  4  0
 14 17  4  0
 14 28  4  0
 15 25  2  0
 16 27  4  0
 17 18  4  0
 20 27  1  0
 24 27  4  0
 26 28  4  0
M  END
$$$$

 Created by Python create_sdf_string function

 29 33  0  0  0  0  0  0  0  0999 V2000
    8.8270   -7.0288   18.4251 C   0  0  0  0  0  0  0  0  0  0  0  0
    9.1576   -4.6236   15.8860 O   0  0  0  0  0  0  0  0  0  0  0  0
    9.1509   -5.9108   17.7177 C   0  0  0  0  0  0  0  0  0  0  0  0
    3.6373   -9.5349   16.0582 N   0  0  0  0  0  0  0  0  0  0  0  0
    9.9275   -4.8001   18.0438 N   0  0  0  0  0  0  0  0  0  0  0  0
    8.5908   -5.7425   16.4412 C   0  0  0  0  0  0  0  0  0  0  0  0
   10.5993   -4.8981   21.6068 C   0  0  0  0  0  0  0  0  0  0  0  0
   10.4258   -3.0106   23.0998 C   0  0  0  0  0  0  0  0  0  0  0  0
   10.2148   -3.4364   25.4200 C   0  0  0  0  0  0  0  0  0  0  0  0
    9.7853   -1.1840   24.4927 C   0  0  0  0  0  0  0  0  0  0  0  0
    5.0276   -8.5227   17.5352 C   0  0  0  0  0  0  0  0  0  0  0  0
    9.8187   -2.0895   25.5800 C   0  0  0  0  0  0  0  0  0  0  0  0
    5.6473   -8.7216   15.3158 C   0  0  0  0  0  0  0  0  0  0  0  0
   10.7581   -3.1233   19.4720 N   0  0  0  0  0  0  0  0  0  0  0  0
    9.9571   -4.0573   16.8866 C   0  0  0  0  0  0  0  0  0  0  0  0
    7.6213   -6.5618   16.0087 C   0  0  0  0  0  0  0  0  0  0  0  0
   10.8583   -2.6527   20.7222 C   0  0  0  0  0  0  0  0  0  0  0  0
   10.6412   -3.5089   21.7936 C   0  0  0  0  0  0  0  0  0  0  0  0
   10.4972   -3.8968   24.1589 C   0  0  0  0  0  0  0  0  0  0  0  0
    5.9260   -8.2736   16.5517 C   0  0  0  0  0  0  0  0  0  0  0  0
    3.8816   -9.1166   17.2493 C   0  0  0  0  0  0  0  0  0  0  0  0
   10.1297   -1.6575   23.2324 C   0  0  0  0  0  0  0  0  0  0  0  0
    9.4684   -1.6929   26.7263 F   0  0  0  0  0  0  0  0  0  0  0  0
    7.7963   -7.7906   17.9837 C   0  0  0  0  0  0  0  0  0  0  0  0
   10.5884   -3.0725   16.7902 O   0  0  0  0  0  0  0  0  0  0  0  0
   10.4323   -5.3494   20.3516 C   0  0  0  0  0  0  0  0  0  0  0  0
    7.1156   -7.5454   16.8218 C   0  0  0  0  0  0  0  0  0  0  0  0
   10.3885   -4.4388   19.2773 C   0  0  0  0  0  0  0  0  0  0  0  0
    4.5160   -9.3822   15.0841 C   0  0  0  0  0  0  0  0  0  0  0  0
  1  3  4  0
  1 24  4  0
  2  6  4  0
  2 15  4  0
  3  5  4  0
  3  6  4  0
  4 21  4  0
  4 29  4  0
  5 15  4  0
  5 28  1  0
  6 16  4  0
  7 18  4  0
  7 26  4  0
  8 18  1  0
  8 19  4  0
  8 22  4  0
  9 12  4  0
  9 19  4  0
 10 12  4  0
 10 22  4  0
 11 20  4  0
 11 21  4  0
 12 23  1  0
 13 20  4  0
 13 29  4  0
 14 17  4  0
 14 28  4  0
 15 25  2  0
 16 27  4  0
 17 18  4  0
 20 27  1  0
 24 27  4  0
 26 28  4  0
M  END
$$$$

 Created by Python create_sdf_string function

 29 33  0  0  0  0  0  0  0  0999 V2000
    8.8270   -7.0288   18.4251 C   0  0  0  0  0  0  0  0  0  0  0  0
    9.1576   -4.6236   15.8860 O   0  0  0  0  0  0  0  0  0  0  0  0
    9.1509   -5.9108   17.7177 C   0  0  0  0  0  0  0  0  0  0  0  0
    3.6373   -9.5349   16.0582 N   0  0  0  0  0  0  0  0  0  0  0  0
    9.9275   -4.8001   18.0438 N   0  0  0  0  0  0  0  0  0  0  0  0
    8.5908   -5.7425   16.4412 C   0  0  0  0  0  0  0  0  0  0  0  0
   10.5993   -4.8981   21.6068 C   0  0  0  0  0  0  0  0  0  0  0  0
   10.4258   -3.0106   23.0998 C   0  0  0  0  0  0  0  0  0  0  0  0
   10.2148   -3.4364   25.4200 C   0  0  0  0  0  0  0  0  0  0  0  0
    9.7853   -1.1840   24.4927 C   0  0  0  0  0  0  0  0  0  0  0  0
    5.0276   -8.5227   17.5352 C   0  0  0  0  0  0  0  0  0  0  0  0
    9.8187   -2.0895   25.5800 C   0  0  0  0  0  0  0  0  0  0  0  0
    5.6473   -8.7216   15.3158 C   0  0  0  0  0  0  0  0  0  0  0  0
   10.7581   -3.1233   19.4720 N   0  0  0  0  0  0  0  0  0  0  0  0
    9.9571   -4.0573   16.8866 C   0  0  0  0  0  0  0  0  0  0  0  0
    7.6213   -6.5618   16.0087 C   0  0  0  0  0  0  0  0  0  0  0  0
   10.8583   -2.6527   20.7222 C   0  0  0  0  0  0  0  0  0  0  0  0
   10.6412   -3.5089   21.7936 C   0  0  0  0  0  0  0  0  0  0  0  0
   10.4972   -3.8968   24.1589 C   0  0  0  0  0  0  0  0  0  0  0  0
    5.9260   -8.2736   16.5517 C   0  0  0  0  0  0  0  0  0  0  0  0
    3.8816   -9.1166   17.2493 C   0  0  0  0  0  0  0  0  0  0  0  0
   10.1297   -1.6575   23.2324 C   0  0  0  0  0  0  0  0  0  0  0  0
    9.4684   -1.6929   26.7263 F   0  0  0  0  0  0  0  0  0  0  0  0
    7.7963   -7.7906   17.9837 C   0  0  0  0  0  0  0  0  0  0  0  0
   10.5884   -3.0725   16.7902 O   0  0  0  0  0  0  0  0  0  0  0  0
   10.4323   -5.3494   20.3516 C   0  0  0  0  0  0  0  0  0  0  0  0
    7.1156   -7.5454   16.8218 C   0  0  0  0  0  0  0  0  0  0  0  0
   10.3885   -4.4388   19.2773 C   0  0  0  0  0  0  0  0  0  0  0  0
    4.5160   -9.3822   15.0841 C   0  0  0  0  0  0  0  0  0  0  0  0
  1  3  4  0
  1 24  4  0
  2  6  4  0
  2 15  4  0
  3  5  4  0
  3  6  4  0
  4 21  4  0
  4 29  4  0
  5 15  4  0
  5 28  1  0
  6 16  4  0
  7 18  4  0
  7 26  4  0
  8 18  1  0
  8 19  4  0
  8 22  4  0
  9 12  4  0
  9 19  4  0
 10 12  4  0
 10 22  4  0
 11 20  4  0
 11 21  4  0
 12 23  1  0
 13 20  4  0
 13 29  4  0
 14 17  4  0
 14 28  4  0
 15 25  2  0
 16 27  4  0
 17 18  4  0
 20 27  1  0
 24 27  4  0
 26 28  4  0
M  END
$$$$

 Created by Python create_sdf_string function

 29 33  0  0  0  0  0  0  0  0999 V2000
    8.8270   -7.0288   18.4251 C   0  0  0  0  0  0  0  0  0  0  0  0
    9.1576   -4.6236   15.8860 O   0  0  0  0  0  0  0  0  0  0  0  0
    9.1509   -5.9108   17.7177 C   0  0  0  0  0  0  0  0  0  0  0  0
    3.6373   -9.5349   16.0582 N   0  0  0  0  0  0  0  0  0  0  0  0
    9.9275   -4.8001   18.0438 N   0  0  0  0  0  0  0  0  0  0  0  0
    8.5908   -5.7425   16.4412 C   0  0  0  0  0  0  0  0  0  0  0  0
   10.5993   -4.8981   21.6068 C   0  0  0  0  0  0  0  0  0  0  0  0
   10.4258   -3.0106   23.0998 C   0  0  0  0  0  0  0  0  0  0  0  0
   10.2148   -3.4364   25.4200 C   0  0  0  0  0  0  0  0  0  0  0  0
    9.7853   -1.1840   24.4927 C   0  0  0  0  0  0  0  0  0  0  0  0
    5.0276   -8.5227   17.5352 C   0  0  0  0  0  0  0  0  0  0  0  0
    9.8187   -2.0895   25.5800 C   0  0  0  0  0  0  0  0  0  0  0  0
    5.6473   -8.7216   15.3158 C   0  0  0  0  0  0  0  0  0  0  0  0
   10.7581   -3.1233   19.4720 N   0  0  0  0  0  0  0  0  0  0  0  0
    9.9571   -4.0573   16.8866 C   0  0  0  0  0  0  0  0  0  0  0  0
    7.6213   -6.5618   16.0087 C   0  0  0  0  0  0  0  0  0  0  0  0
   10.8583   -2.6527   20.7222 C   0  0  0  0  0  0  0  0  0  0  0  0
   10.6412   -3.5089   21.7936 C   0  0  0  0  0  0  0  0  0  0  0  0
   10.4972   -3.8968   24.1589 C   0  0  0  0  0  0  0  0  0  0  0  0
    5.9260   -8.2736   16.5517 C   0  0  0  0  0  0  0  0  0  0  0  0
    3.8816   -9.1166   17.2493 C   0  0  0  0  0  0  0  0  0  0  0  0
   10.1297   -1.6575   23.2324 C   0  0  0  0  0  0  0  0  0  0  0  0
    9.4684   -1.6929   26.7263 F   0  0  0  0  0  0  0  0  0  0  0  0
    7.7963   -7.7906   17.9837 C   0  0  0  0  0  0  0  0  0  0  0  0
   10.5884   -3.0725   16.7902 O   0  0  0  0  0  0  0  0  0  0  0  0
   10.4323   -5.3494   20.3516 C   0  0  0  0  0  0  0  0  0  0  0  0
    7.1156   -7.5454   16.8218 C   0  0  0  0  0  0  0  0  0  0  0  0
   10.3885   -4.4388   19.2773 C   0  0  0  0  0  0  0  0  0  0  0  0
    4.5160   -9.3822   15.0841 C   0  0  0  0  0  0  0  0  0  0  0  0
  1  3  4  0
  1 24  4  0
  2  6  4  0
  2 15  4  0
  3  5  4  0
  3  6  4  0
  4 21  4  0
  4 29  4  0
  5 15  4  0
  5 28  1  0
  6 16  4  0
  7 18  4  0
  7 26  4  0
  8 18  1  0
  8 19  4  0
  8 22  4  0
  9 12  4  0
  9 19  4  0
 10 12  4  0
 10 22  4  0
 11 20  4  0
 11 21  4  0
 12 23  1  0
 13 20  4  0
 13 29  4  0
 14 17  4  0
 14 28  4  0
 15 25  2  0
 16 27  4  0
 17 18  4  0
 20 27  1  0
 24 27  4  0
 26 28  4  0
M  END
$$$$

 Created by Python create_sdf_string function

 29 33  0  0  0  0  0  0  0  0999 V2000
    8.8270   -7.0288   18.4251 C   0  0  0  0  0  0  0  0  0  0  0  0
    9.1576   -4.6236   15.8860 O   0  0  0  0  0  0  0  0  0  0  0  0
    9.1509   -5.9108   17.7177 C   0  0  0  0  0  0  0  0  0  0  0  0
    3.6373   -9.5349   16.0582 N   0  0  0  0  0  0  0  0  0  0  0  0
    9.9275   -4.8001   18.0438 N   0  0  0  0  0  0  0  0  0  0  0  0
    8.5908   -5.7425   16.4412 C   0  0  0  0  0  0  0  0  0  0  0  0
   10.5993   -4.8981   21.6068 C   0  0  0  0  0  0  0  0  0  0  0  0
   10.4258   -3.0106   23.0998 C   0  0  0  0  0  0  0  0  0  0  0  0
   10.2148   -3.4364   25.4200 C   0  0  0  0  0  0  0  0  0  0  0  0
    9.7853   -1.1840   24.4927 C   0  0  0  0  0  0  0  0  0  0  0  0
    5.0276   -8.5227   17.5352 C   0  0  0  0  0  0  0  0  0  0  0  0
    9.8187   -2.0895   25.5800 C   0  0  0  0  0  0  0  0  0  0  0  0
    5.6473   -8.7216   15.3158 C   0  0  0  0  0  0  0  0  0  0  0  0
   10.7581   -3.1233   19.4720 N   0  0  0  0  0  0  0  0  0  0  0  0
    9.9571   -4.0573   16.8866 C   0  0  0  0  0  0  0  0  0  0  0  0
    7.6213   -6.5618   16.0087 C   0  0  0  0  0  0  0  0  0  0  0  0
   10.8583   -2.6527   20.7222 C   0  0  0  0  0  0  0  0  0  0  0  0
   10.6412   -3.5089   21.7936 C   0  0  0  0  0  0  0  0  0  0  0  0
   10.4972   -3.8968   24.1589 C   0  0  0  0  0  0  0  0  0  0  0  0
    5.9260   -8.2736   16.5517 C   0  0  0  0  0  0  0  0  0  0  0  0
    3.8816   -9.1166   17.2493 C   0  0  0  0  0  0  0  0  0  0  0  0
   10.1297   -1.6575   23.2324 C   0  0  0  0  0  0  0  0  0  0  0  0
    9.4684   -1.6929   26.7263 F   0  0  0  0  0  0  0  0  0  0  0  0
    7.7963   -7.7906   17.9837 C   0  0  0  0  0  0  0  0  0  0  0  0
   10.5884   -3.0725   16.7902 O   0  0  0  0  0  0  0  0  0  0  0  0
   10.4323   -5.3494   20.3516 C   0  0  0  0  0  0  0  0  0  0  0  0
    7.1156   -7.5454   16.8218 C   0  0  0  0  0  0  0  0  0  0  0  0
   10.3885   -4.4388   19.2773 C   0  0  0  0  0  0  0  0  0  0  0  0
    4.5160   -9.3822   15.0841 C   0  0  0  0  0  0  0  0  0  0  0  0
  1  3  4  0
  1 24  4  0
  2  6  4  0
  2 15  4  0
  3  5  4  0
  3  6  4  0
  4 21  4  0
  4 29  4  0
  5 15  4  0
  5 28  1  0
  6 16  4  0
  7 18  4  0
  7 26  4  0
  8 18  1  0
  8 19  4  0
  8 22  4  0
  9 12  4  0
  9 19  4  0
 10 12  4  0
 10 22  4  0
 11 20  4  0
 11 21  4  0
 12 23  1  0
 13 20  4  0
 13 29  4  0
 14 17  4  0
 14 28  4  0
 15 25  2  0
 16 27  4  0
 17 18  4  0
 20 27  1  0
 24 27  4  0
 26 28  4  0
M  END
$$$$

 Created by Python create_sdf_string function

 29 33  0  0  0  0  0  0  0  0999 V2000
    8.8270   -7.0288   18.4251 C   0  0  0  0  0  0  0  0  0  0  0  0
    9.1576   -4.6236   15.8860 O   0  0  0  0  0  0  0  0  0  0  0  0
    9.1509   -5.9108   17.7177 C   0  0  0  0  0  0  0  0  0  0  0  0
    3.6373   -9.5349   16.0582 N   0  0  0  0  0  0  0  0  0  0  0  0
    9.9275   -4.8001   18.0438 N   0  0  0  0  0  0  0  0  0  0  0  0
    8.5908   -5.7425   16.4412 C   0  0  0  0  0  0  0  0  0  0  0  0
   10.5993   -4.8981   21.6068 C   0  0  0  0  0  0  0  0  0  0  0  0
   10.4258   -3.0106   23.0998 C   0  0  0  0  0  0  0  0  0  0  0  0
   10.2148   -3.4364   25.4200 C   0  0  0  0  0  0  0  0  0  0  0  0
    9.7853   -1.1840   24.4927 C   0  0  0  0  0  0  0  0  0  0  0  0
    5.0276   -8.5227   17.5352 C   0  0  0  0  0  0  0  0  0  0  0  0
    9.8187   -2.0895   25.5800 C   0  0  0  0  0  0  0  0  0  0  0  0
    5.6473   -8.7216   15.3158 C   0  0  0  0  0  0  0  0  0  0  0  0
   10.7581   -3.1233   19.4720 N   0  0  0  0  0  0  0  0  0  0  0  0
    9.9571   -4.0573   16.8866 C   0  0  0  0  0  0  0  0  0  0  0  0
    7.6213   -6.5618   16.0087 C   0  0  0  0  0  0  0  0  0  0  0  0
   10.8583   -2.6527   20.7222 C   0  0  0  0  0  0  0  0  0  0  0  0
   10.6412   -3.5089   21.7936 C   0  0  0  0  0  0  0  0  0  0  0  0
   10.4972   -3.8968   24.1589 C   0  0  0  0  0  0  0  0  0  0  0  0
    5.9260   -8.2736   16.5517 C   0  0  0  0  0  0  0  0  0  0  0  0
    3.8816   -9.1166   17.2493 C   0  0  0  0  0  0  0  0  0  0  0  0
   10.1297   -1.6575   23.2324 C   0  0  0  0  0  0  0  0  0  0  0  0
    9.4684   -1.6929   26.7263 F   0  0  0  0  0  0  0  0  0  0  0  0
    7.7963   -7.7906   17.9837 C   0  0  0  0  0  0  0  0  0  0  0  0
   10.5884   -3.0725   16.7902 O   0  0  0  0  0  0  0  0  0  0  0  0
   10.4323   -5.3494   20.3516 C   0  0  0  0  0  0  0  0  0  0  0  0
    7.1156   -7.5454   16.8218 C   0  0  0  0  0  0  0  0  0  0  0  0
   10.3885   -4.4388   19.2773 C   0  0  0  0  0  0  0  0  0  0  0  0
    4.5160   -9.3822   15.0841 C   0  0  0  0  0  0  0  0  0  0  0  0
  1  3  4  0
  1 24  4  0
  2  6  4  0
  2 15  4  0
  3  5  4  0
  3  6  4  0
  4 21  4  0
  4 29  4  0
  5 15  4  0
  5 28  1  0
  6 16  4  0
  7 18  4  0
  7 26  4  0
  8 18  1  0
  8 19  4  0
  8 22  4  0
  9 12  4  0
  9 19  4  0
 10 12  4  0
 10 22  4  0
 11 20  4  0
 11 21  4  0
 12 23  1  0
 13 20  4  0
 13 29  4  0
 14 17  4  0
 14 28  4  0
 15 25  2  0
 16 27  4  0
 17 18  4  0
 20 27  1  0
 24 27  4  0
 26 28  4  0
M  END
$$$$

 Created by Python create_sdf_string function

 29 33  0  0  0  0  0  0  0  0999 V2000
    8.8270   -7.0288   18.4251 C   0  0  0  0  0  0  0  0  0  0  0  0
    9.1576   -4.6236   15.8860 O   0  0  0  0  0  0  0  0  0  0  0  0
    9.1509   -5.9108   17.7177 C   0  0  0  0  0  0  0  0  0  0  0  0
    3.6373   -9.5349   16.0582 N   0  0  0  0  0  0  0  0  0  0  0  0
    9.9275   -4.8001   18.0438 N   0  0  0  0  0  0  0  0  0  0  0  0
    8.5908   -5.7425   16.4412 C   0  0  0  0  0  0  0  0  0  0  0  0
   10.5993   -4.8981   21.6068 C   0  0  0  0  0  0  0  0  0  0  0  0
   10.4258   -3.0106   23.0998 C   0  0  0  0  0  0  0  0  0  0  0  0
   10.2148   -3.4364   25.4200 C   0  0  0  0  0  0  0  0  0  0  0  0
    9.7853   -1.1840   24.4927 C   0  0  0  0  0  0  0  0  0  0  0  0
    5.0276   -8.5227   17.5352 C   0  0  0  0  0  0  0  0  0  0  0  0
    9.8187   -2.0895   25.5800 C   0  0  0  0  0  0  0  0  0  0  0  0
    5.6473   -8.7216   15.3158 C   0  0  0  0  0  0  0  0  0  0  0  0
   10.7581   -3.1233   19.4720 N   0  0  0  0  0  0  0  0  0  0  0  0
    9.9571   -4.0573   16.8866 C   0  0  0  0  0  0  0  0  0  0  0  0
    7.6213   -6.5618   16.0087 C   0  0  0  0  0  0  0  0  0  0  0  0
   10.8583   -2.6527   20.7222 C   0  0  0  0  0  0  0  0  0  0  0  0
   10.6412   -3.5089   21.7936 C   0  0  0  0  0  0  0  0  0  0  0  0
   10.4972   -3.8968   24.1589 C   0  0  0  0  0  0  0  0  0  0  0  0
    5.9260   -8.2736   16.5517 C   0  0  0  0  0  0  0  0  0  0  0  0
    3.8816   -9.1166   17.2493 C   0  0  0  0  0  0  0  0  0  0  0  0
   10.1297   -1.6575   23.2324 C   0  0  0  0  0  0  0  0  0  0  0  0
    9.4684   -1.6929   26.7263 F   0  0  0  0  0  0  0  0  0  0  0  0
    7.7963   -7.7906   17.9837 C   0  0  0  0  0  0  0  0  0  0  0  0
   10.5884   -3.0725   16.7902 O   0  0  0  0  0  0  0  0  0  0  0  0
   10.4323   -5.3494   20.3516 C   0  0  0  0  0  0  0  0  0  0  0  0
    7.1156   -7.5454   16.8218 C   0  0  0  0  0  0  0  0  0  0  0  0
   10.3885   -4.4388   19.2773 C   0  0  0  0  0  0  0  0  0  0  0  0
    4.5160   -9.3822   15.0841 C   0  0  0  0  0  0  0  0  0  0  0  0
  1  3  4  0
  1 24  4  0
  2  6  4  0
  2 15  4  0
  3  5  4  0
  3  6  4  0
  4 21  4  0
  4 29  4  0
  5 15  4  0
  5 28  1  0
  6 16  4  0
  7 18  4  0
  7 26  4  0
  8 18  1  0
  8 19  4  0
  8 22  4  0
  9 12  4  0
  9 19  4  0
 10 12  4  0
 10 22  4  0
 11 20  4  0
 11 21  4  0
 12 23  1  0
 13 20  4  0
 13 29  4  0
 14 17  4  0
 14 28  4  0
 15 25  2  0
 16 27  4  0
 17 18  4  0
 20 27  1  0
 24 27  4  0
 26 28  4  0
M  END
$$$$

 Created by Python create_sdf_string function

 29 33  0  0  0  0  0  0  0  0999 V2000
    8.8270   -7.0288   18.4251 C   0  0  0  0  0  0  0  0  0  0  0  0
    9.1576   -4.6236   15.8860 O   0  0  0  0  0  0  0  0  0  0  0  0
    9.1509   -5.9108   17.7177 C   0  0  0  0  0  0  0  0  0  0  0  0
    3.6373   -9.5349   16.0582 N   0  0  0  0  0  0  0  0  0  0  0  0
    9.9275   -4.8001   18.0438 N   0  0  0  0  0  0  0  0  0  0  0  0
    8.5908   -5.7425   16.4412 C   0  0  0  0  0  0  0  0  0  0  0  0
   10.5993   -4.8981   21.6068 C   0  0  0  0  0  0  0  0  0  0  0  0
   10.4258   -3.0106   23.0998 C   0  0  0  0  0  0  0  0  0  0  0  0
   10.2148   -3.4364   25.4200 C   0  0  0  0  0  0  0  0  0  0  0  0
    9.7853   -1.1840   24.4927 C   0  0  0  0  0  0  0  0  0  0  0  0
    5.0276   -8.5227   17.5352 C   0  0  0  0  0  0  0  0  0  0  0  0
    9.8187   -2.0895   25.5800 C   0  0  0  0  0  0  0  0  0  0  0  0
    5.6473   -8.7216   15.3158 C   0  0  0  0  0  0  0  0  0  0  0  0
   10.7581   -3.1233   19.4720 N   0  0  0  0  0  0  0  0  0  0  0  0
    9.9571   -4.0573   16.8866 C   0  0  0  0  0  0  0  0  0  0  0  0
    7.6213   -6.5618   16.0087 C   0  0  0  0  0  0  0  0  0  0  0  0
   10.8583   -2.6527   20.7222 C   0  0  0  0  0  0  0  0  0  0  0  0
   10.6412   -3.5089   21.7936 C   0  0  0  0  0  0  0  0  0  0  0  0
   10.4972   -3.8968   24.1589 C   0  0  0  0  0  0  0  0  0  0  0  0
    5.9260   -8.2736   16.5517 C   0  0  0  0  0  0  0  0  0  0  0  0
    3.8816   -9.1166   17.2493 C   0  0  0  0  0  0  0  0  0  0  0  0
   10.1297   -1.6575   23.2324 C   0  0  0  0  0  0  0  0  0  0  0  0
    9.4684   -1.6929   26.7263 F   0  0  0  0  0  0  0  0  0  0  0  0
    7.7963   -7.7906   17.9837 C   0  0  0  0  0  0  0  0  0  0  0  0
   10.5884   -3.0725   16.7902 O   0  0  0  0  0  0  0  0  0  0  0  0
   10.4323   -5.3494   20.3516 C   0  0  0  0  0  0  0  0  0  0  0  0
    7.1156   -7.5454   16.8218 C   0  0  0  0  0  0  0  0  0  0  0  0
   10.3885   -4.4388   19.2773 C   0  0  0  0  0  0  0  0  0  0  0  0
    4.5160   -9.3822   15.0841 C   0  0  0  0  0  0  0  0  0  0  0  0
  1  3  4  0
  1 24  4  0
  2  6  4  0
  2 15  4  0
  3  5  4  0
  3  6  4  0
  4 21  4  0
  4 29  4  0
  5 15  4  0
  5 28  1  0
  6 16  4  0
  7 18  4  0
  7 26  4  0
  8 18  1  0
  8 19  4  0
  8 22  4  0
  9 12  4  0
  9 19  4  0
 10 12  4  0
 10 22  4  0
 11 20  4  0
 11 21  4  0
 12 23  1  0
 13 20  4  0
 13 29  4  0
 14 17  4  0
 14 28  4  0
 15 25  2  0
 16 27  4  0
 17 18  4  0
 20 27  1  0
 24 27  4  0
 26 28  4  0
M  END
$$$$

 Created by Python create_sdf_string function

 29 33  0  0  0  0  0  0  0  0999 V2000
    8.8270   -7.0288   18.4251 C   0  0  0  0  0  0  0  0  0  0  0  0
    9.1576   -4.6236   15.8860 O   0  0  0  0  0  0  0  0  0  0  0  0
    9.1509   -5.9108   17.7177 C   0  0  0  0  0  0  0  0  0  0  0  0
    3.6373   -9.5349   16.0582 N   0  0  0  0  0  0  0  0  0  0  0  0
    9.9275   -4.8001   18.0438 N   0  0  0  0  0  0  0  0  0  0  0  0
    8.5908   -5.7425   16.4412 C   0  0  0  0  0  0  0  0  0  0  0  0
   10.5993   -4.8981   21.6068 C   0  0  0  0  0  0  0  0  0  0  0  0
   10.4258   -3.0106   23.0998 C   0  0  0  0  0  0  0  0  0  0  0  0
   10.2148   -3.4364   25.4200 C   0  0  0  0  0  0  0  0  0  0  0  0
    9.7853   -1.1840   24.4927 C   0  0  0  0  0  0  0  0  0  0  0  0
    5.0276   -8.5227   17.5352 C   0  0  0  0  0  0  0  0  0  0  0  0
    9.8187   -2.0895   25.5800 C   0  0  0  0  0  0  0  0  0  0  0  0
    5.6473   -8.7216   15.3158 C   0  0  0  0  0  0  0  0  0  0  0  0
   10.7581   -3.1233   19.4720 N   0  0  0  0  0  0  0  0  0  0  0  0
    9.9571   -4.0573   16.8866 C   0  0  0  0  0  0  0  0  0  0  0  0
    7.6213   -6.5618   16.0087 C   0  0  0  0  0  0  0  0  0  0  0  0
   10.8583   -2.6527   20.7222 C   0  0  0  0  0  0  0  0  0  0  0  0
   10.6412   -3.5089   21.7936 C   0  0  0  0  0  0  0  0  0  0  0  0
   10.4972   -3.8968   24.1589 C   0  0  0  0  0  0  0  0  0  0  0  0
    5.9260   -8.2736   16.5517 C   0  0  0  0  0  0  0  0  0  0  0  0
    3.8816   -9.1166   17.2493 C   0  0  0  0  0  0  0  0  0  0  0  0
   10.1297   -1.6575   23.2324 C   0  0  0  0  0  0  0  0  0  0  0  0
    9.4684   -1.6929   26.7263 F   0  0  0  0  0  0  0  0  0  0  0  0
    7.7963   -7.7906   17.9837 C   0  0  0  0  0  0  0  0  0  0  0  0
   10.5884   -3.0725   16.7902 O   0  0  0  0  0  0  0  0  0  0  0  0
   10.4323   -5.3494   20.3516 C   0  0  0  0  0  0  0  0  0  0  0  0
    7.1156   -7.5454   16.8218 C   0  0  0  0  0  0  0  0  0  0  0  0
   10.3885   -4.4388   19.2773 C   0  0  0  0  0  0  0  0  0  0  0  0
    4.5160   -9.3822   15.0841 C   0  0  0  0  0  0  0  0  0  0  0  0
  1  3  4  0
  1 24  4  0
  2  6  4  0
  2 15  4  0
  3  5  4  0
  3  6  4  0
  4 21  4  0
  4 29  4  0
  5 15  4  0
  5 28  1  0
  6 16  4  0
  7 18  4  0
  7 26  4  0
  8 18  1  0
  8 19  4  0
  8 22  4  0
  9 12  4  0
  9 19  4  0
 10 12  4  0
 10 22  4  0
 11 20  4  0
 11 21  4  0
 12 23  1  0
 13 20  4  0
 13 29  4  0
 14 17  4  0
 14 28  4  0
 15 25  2  0
 16 27  4  0
 17 18  4  0
 20 27  1  0
 24 27  4  0
 26 28  4  0
M  END
$$$$

 Created by Python create_sdf_string function

 29 33  0  0  0  0  0  0  0  0999 V2000
    8.8270   -7.0288   18.4251 C   0  0  0  0  0  0  0  0  0  0  0  0
    9.1576   -4.6236   15.8860 O   0  0  0  0  0  0  0  0  0  0  0  0
    9.1509   -5.9108   17.7177 C   0  0  0  0  0  0  0  0  0  0  0  0
    3.6373   -9.5349   16.0582 N   0  0  0  0  0  0  0  0  0  0  0  0
    9.9275   -4.8001   18.0438 N   0  0  0  0  0  0  0  0  0  0  0  0
    8.5908   -5.7425   16.4412 C   0  0  0  0  0  0  0  0  0  0  0  0
   10.5993   -4.8981   21.6068 C   0  0  0  0  0  0  0  0  0  0  0  0
   10.4258   -3.0106   23.0998 C   0  0  0  0  0  0  0  0  0  0  0  0
   10.2148   -3.4364   25.4200 C   0  0  0  0  0  0  0  0  0  0  0  0
    9.7853   -1.1840   24.4927 C   0  0  0  0  0  0  0  0  0  0  0  0
    5.0276   -8.5227   17.5352 C   0  0  0  0  0  0  0  0  0  0  0  0
    9.8187   -2.0895   25.5800 C   0  0  0  0  0  0  0  0  0  0  0  0
    5.6473   -8.7216   15.3158 C   0  0  0  0  0  0  0  0  0  0  0  0
   10.7581   -3.1233   19.4720 N   0  0  0  0  0  0  0  0  0  0  0  0
    9.9571   -4.0573   16.8866 C   0  0  0  0  0  0  0  0  0  0  0  0
    7.6213   -6.5618   16.0087 C   0  0  0  0  0  0  0  0  0  0  0  0
   10.8583   -2.6527   20.7222 C   0  0  0  0  0  0  0  0  0  0  0  0
   10.6412   -3.5089   21.7936 C   0  0  0  0  0  0  0  0  0  0  0  0
   10.4972   -3.8968   24.1589 C   0  0  0  0  0  0  0  0  0  0  0  0
    5.9260   -8.2736   16.5517 C   0  0  0  0  0  0  0  0  0  0  0  0
    3.8816   -9.1166   17.2493 C   0  0  0  0  0  0  0  0  0  0  0  0
   10.1297   -1.6575   23.2324 C   0  0  0  0  0  0  0  0  0  0  0  0
    9.4684   -1.6929   26.7263 F   0  0  0  0  0  0  0  0  0  0  0  0
    7.7963   -7.7906   17.9837 C   0  0  0  0  0  0  0  0  0  0  0  0
   10.5884   -3.0725   16.7902 O   0  0  0  0  0  0  0  0  0  0  0  0
   10.4323   -5.3494   20.3516 C   0  0  0  0  0  0  0  0  0  0  0  0
    7.1156   -7.5454   16.8218 C   0  0  0  0  0  0  0  0  0  0  0  0
   10.3885   -4.4388   19.2773 C   0  0  0  0  0  0  0  0  0  0  0  0
    4.5160   -9.3822   15.0841 C   0  0  0  0  0  0  0  0  0  0  0  0
  1  3  4  0
  1 24  4  0
  2  6  4  0
  2 15  4  0
  3  5  4  0
  3  6  4  0
  4 21  4  0
  4 29  4  0
  5 15  4  0
  5 28  1  0
  6 16  4  0
  7 18  4  0
  7 26  4  0
  8 18  1  0
  8 19  4  0
  8 22  4  0
  9 12  4  0
  9 19  4  0
 10 12  4  0
 10 22  4  0
 11 20  4  0
 11 21  4  0
 12 23  1  0
 13 20  4  0
 13 29  4  0
 14 17  4  0
 14 28  4  0
 15 25  2  0
 16 27  4  0
 17 18  4  0
 20 27  1  0
 24 27  4  0
 26 28  4  0
M  END
$$$$

 Created by Python create_sdf_string function

 29 33  0  0  0  0  0  0  0  0999 V2000
    8.8270   -7.0288   18.4251 C   0  0  0  0  0  0  0  0  0  0  0  0
    9.1576   -4.6236   15.8860 O   0  0  0  0  0  0  0  0  0  0  0  0
    9.1509   -5.9108   17.7177 C   0  0  0  0  0  0  0  0  0  0  0  0
    3.6373   -9.5349   16.0582 N   0  0  0  0  0  0  0  0  0  0  0  0
    9.9275   -4.8001   18.0438 N   0  0  0  0  0  0  0  0  0  0  0  0
    8.5908   -5.7425   16.4412 C   0  0  0  0  0  0  0  0  0  0  0  0
   10.5993   -4.8981   21.6068 C   0  0  0  0  0  0  0  0  0  0  0  0
   10.4258   -3.0106   23.0998 C   0  0  0  0  0  0  0  0  0  0  0  0
   10.2148   -3.4364   25.4200 C   0  0  0  0  0  0  0  0  0  0  0  0
    9.7853   -1.1840   24.4927 C   0  0  0  0  0  0  0  0  0  0  0  0
    5.0276   -8.5227   17.5352 C   0  0  0  0  0  0  0  0  0  0  0  0
    9.8187   -2.0895   25.5800 C   0  0  0  0  0  0  0  0  0  0  0  0
    5.6473   -8.7216   15.3158 C   0  0  0  0  0  0  0  0  0  0  0  0
   10.7581   -3.1233   19.4720 N   0  0  0  0  0  0  0  0  0  0  0  0
    9.9571   -4.0573   16.8866 C   0  0  0  0  0  0  0  0  0  0  0  0
    7.6213   -6.5618   16.0087 C   0  0  0  0  0  0  0  0  0  0  0  0
   10.8583   -2.6527   20.7222 C   0  0  0  0  0  0  0  0  0  0  0  0
   10.6412   -3.5089   21.7936 C   0  0  0  0  0  0  0  0  0  0  0  0
   10.4972   -3.8968   24.1589 C   0  0  0  0  0  0  0  0  0  0  0  0
    5.9260   -8.2736   16.5517 C   0  0  0  0  0  0  0  0  0  0  0  0
    3.8816   -9.1166   17.2493 C   0  0  0  0  0  0  0  0  0  0  0  0
   10.1297   -1.6575   23.2324 C   0  0  0  0  0  0  0  0  0  0  0  0
    9.4684   -1.6929   26.7263 F   0  0  0  0  0  0  0  0  0  0  0  0
    7.7963   -7.7906   17.9837 C   0  0  0  0  0  0  0  0  0  0  0  0
   10.5884   -3.0725   16.7902 O   0  0  0  0  0  0  0  0  0  0  0  0
   10.4323   -5.3494   20.3516 C   0  0  0  0  0  0  0  0  0  0  0  0
    7.1156   -7.5454   16.8218 C   0  0  0  0  0  0  0  0  0  0  0  0
   10.3885   -4.4388   19.2773 C   0  0  0  0  0  0  0  0  0  0  0  0
    4.5160   -9.3822   15.0841 C   0  0  0  0  0  0  0  0  0  0  0  0
  1  3  4  0
  1 24  4  0
  2  6  4  0
  2 15  4  0
  3  5  4  0
  3  6  4  0
  4 21  4  0
  4 29  4  0
  5 15  4  0
  5 28  1  0
  6 16  4  0
  7 18  4  0
  7 26  4  0
  8 18  1  0
  8 19  4  0
  8 22  4  0
  9 12  4  0
  9 19  4  0
 10 12  4  0
 10 22  4  0
 11 20  4  0
 11 21  4  0
 12 23  1  0
 13 20  4  0
 13 29  4  0
 14 17  4  0
 14 28  4  0
 15 25  2  0
 16 27  4  0
 17 18  4  0
 20 27  1  0
 24 27  4  0
 26 28  4  0
M  END
$$$$

 Created by Python create_sdf_string function

 29 33  0  0  0  0  0  0  0  0999 V2000
    8.8270   -7.0288   18.4251 C   0  0  0  0  0  0  0  0  0  0  0  0
    9.1576   -4.6236   15.8860 O   0  0  0  0  0  0  0  0  0  0  0  0
    9.1509   -5.9108   17.7177 C   0  0  0  0  0  0  0  0  0  0  0  0
    3.6373   -9.5349   16.0582 N   0  0  0  0  0  0  0  0  0  0  0  0
    9.9275   -4.8001   18.0438 N   0  0  0  0  0  0  0  0  0  0  0  0
    8.5908   -5.7425   16.4412 C   0  0  0  0  0  0  0  0  0  0  0  0
   10.5993   -4.8981   21.6068 C   0  0  0  0  0  0  0  0  0  0  0  0
   10.4258   -3.0106   23.0998 C   0  0  0  0  0  0  0  0  0  0  0  0
   10.2148   -3.4364   25.4200 C   0  0  0  0  0  0  0  0  0  0  0  0
    9.7853   -1.1840   24.4927 C   0  0  0  0  0  0  0  0  0  0  0  0
    5.0276   -8.5227   17.5352 C   0  0  0  0  0  0  0  0  0  0  0  0
    9.8187   -2.0895   25.5800 C   0  0  0  0  0  0  0  0  0  0  0  0
    5.6473   -8.7216   15.3158 C   0  0  0  0  0  0  0  0  0  0  0  0
   10.7581   -3.1233   19.4720 N   0  0  0  0  0  0  0  0  0  0  0  0
    9.9571   -4.0573   16.8866 C   0  0  0  0  0  0  0  0  0  0  0  0
    7.6213   -6.5618   16.0087 C   0  0  0  0  0  0  0  0  0  0  0  0
   10.8583   -2.6527   20.7222 C   0  0  0  0  0  0  0  0  0  0  0  0
   10.6412   -3.5089   21.7936 C   0  0  0  0  0  0  0  0  0  0  0  0
   10.4972   -3.8968   24.1589 C   0  0  0  0  0  0  0  0  0  0  0  0
    5.9260   -8.2736   16.5517 C   0  0  0  0  0  0  0  0  0  0  0  0
    3.8816   -9.1166   17.2493 C   0  0  0  0  0  0  0  0  0  0  0  0
   10.1297   -1.6575   23.2324 C   0  0  0  0  0  0  0  0  0  0  0  0
    9.4684   -1.6929   26.7263 F   0  0  0  0  0  0  0  0  0  0  0  0
    7.7963   -7.7906   17.9837 C   0  0  0  0  0  0  0  0  0  0  0  0
   10.5884   -3.0725   16.7902 O   0  0  0  0  0  0  0  0  0  0  0  0
   10.4323   -5.3494   20.3516 C   0  0  0  0  0  0  0  0  0  0  0  0
    7.1156   -7.5454   16.8218 C   0  0  0  0  0  0  0  0  0  0  0  0
   10.3885   -4.4388   19.2773 C   0  0  0  0  0  0  0  0  0  0  0  0
    4.5160   -9.3822   15.0841 C   0  0  0  0  0  0  0  0  0  0  0  0
  1  3  4  0
  1 24  4  0
  2  6  4  0
  2 15  4  0
  3  5  4  0
  3  6  4  0
  4 21  4  0
  4 29  4  0
  5 15  4  0
  5 28  1  0
  6 16  4  0
  7 18  4  0
  7 26  4  0
  8 18  1  0
  8 19  4  0
  8 22  4  0
  9 12  4  0
  9 19  4  0
 10 12  4  0
 10 22  4  0
 11 20  4  0
 11 21  4  0
 12 23  1  0
 13 20  4  0
 13 29  4  0
 14 17  4  0
 14 28  4  0
 15 25  2  0
 16 27  4  0
 17 18  4  0
 20 27  1  0
 24 27  4  0
 26 28  4  0
M  END
$$$$

 Created by Python create_sdf_string function

 29 33  0  0  0  0  0  0  0  0999 V2000
    8.8270   -7.0288   18.4251 C   0  0  0  0  0  0  0  0  0  0  0  0
    9.1576   -4.6236   15.8860 O   0  0  0  0  0  0  0  0  0  0  0  0
    9.1509   -5.9108   17.7177 C   0  0  0  0  0  0  0  0  0  0  0  0
    3.6373   -9.5349   16.0582 N   0  0  0  0  0  0  0  0  0  0  0  0
    9.9275   -4.8001   18.0438 N   0  0  0  0  0  0  0  0  0  0  0  0
    8.5908   -5.7425   16.4412 C   0  0  0  0  0  0  0  0  0  0  0  0
   10.5993   -4.8981   21.6068 C   0  0  0  0  0  0  0  0  0  0  0  0
   10.4258   -3.0106   23.0998 C   0  0  0  0  0  0  0  0  0  0  0  0
   10.2148   -3.4364   25.4200 C   0  0  0  0  0  0  0  0  0  0  0  0
    9.7853   -1.1840   24.4927 C   0  0  0  0  0  0  0  0  0  0  0  0
    5.0276   -8.5227   17.5352 C   0  0  0  0  0  0  0  0  0  0  0  0
    9.8187   -2.0895   25.5800 C   0  0  0  0  0  0  0  0  0  0  0  0
    5.6473   -8.7216   15.3158 C   0  0  0  0  0  0  0  0  0  0  0  0
   10.7581   -3.1233   19.4720 N   0  0  0  0  0  0  0  0  0  0  0  0
    9.9571   -4.0573   16.8866 C   0  0  0  0  0  0  0  0  0  0  0  0
    7.6213   -6.5618   16.0087 C   0  0  0  0  0  0  0  0  0  0  0  0
   10.8583   -2.6527   20.7222 C   0  0  0  0  0  0  0  0  0  0  0  0
   10.6412   -3.5089   21.7936 C   0  0  0  0  0  0  0  0  0  0  0  0
   10.4972   -3.8968   24.1589 C   0  0  0  0  0  0  0  0  0  0  0  0
    5.9260   -8.2736   16.5517 C   0  0  0  0  0  0  0  0  0  0  0  0
    3.8816   -9.1166   17.2493 C   0  0  0  0  0  0  0  0  0  0  0  0
   10.1297   -1.6575   23.2324 C   0  0  0  0  0  0  0  0  0  0  0  0
    9.4684   -1.6929   26.7263 F   0  0  0  0  0  0  0  0  0  0  0  0
    7.7963   -7.7906   17.9837 C   0  0  0  0  0  0  0  0  0  0  0  0
   10.5884   -3.0725   16.7902 O   0  0  0  0  0  0  0  0  0  0  0  0
   10.4323   -5.3494   20.3516 C   0  0  0  0  0  0  0  0  0  0  0  0
    7.1156   -7.5454   16.8218 C   0  0  0  0  0  0  0  0  0  0  0  0
   10.3885   -4.4388   19.2773 C   0  0  0  0  0  0  0  0  0  0  0  0
    4.5160   -9.3822   15.0841 C   0  0  0  0  0  0  0  0  0  0  0  0
  1  3  4  0
  1 24  4  0
  2  6  4  0
  2 15  4  0
  3  5  4  0
  3  6  4  0
  4 21  4  0
  4 29  4  0
  5 15  4  0
  5 28  1  0
  6 16  4  0
  7 18  4  0
  7 26  4  0
  8 18  1  0
  8 19  4  0
  8 22  4  0
  9 12  4  0
  9 19  4  0
 10 12  4  0
 10 22  4  0
 11 20  4  0
 11 21  4  0
 12 23  1  0
 13 20  4  0
 13 29  4  0
 14 17  4  0
 14 28  4  0
 15 25  2  0
 16 27  4  0
 17 18  4  0
 20 27  1  0
 24 27  4  0
 26 28  4  0
M  END
$$$$

 Created by Python create_sdf_string function

 29 33  0  0  0  0  0  0  0  0999 V2000
    8.8270   -7.0288   18.4251 C   0  0  0  0  0  0  0  0  0  0  0  0
    9.1576   -4.6236   15.8860 O   0  0  0  0  0  0  0  0  0  0  0  0
    9.1509   -5.9108   17.7177 C   0  0  0  0  0  0  0  0  0  0  0  0
    3.6373   -9.5349   16.0582 N   0  0  0  0  0  0  0  0  0  0  0  0
    9.9275   -4.8001   18.0438 N   0  0  0  0  0  0  0  0  0  0  0  0
    8.5908   -5.7425   16.4412 C   0  0  0  0  0  0  0  0  0  0  0  0
   10.5993   -4.8981   21.6068 C   0  0  0  0  0  0  0  0  0  0  0  0
   10.4258   -3.0106   23.0998 C   0  0  0  0  0  0  0  0  0  0  0  0
   10.2148   -3.4364   25.4200 C   0  0  0  0  0  0  0  0  0  0  0  0
    9.7853   -1.1840   24.4927 C   0  0  0  0  0  0  0  0  0  0  0  0
    5.0276   -8.5227   17.5352 C   0  0  0  0  0  0  0  0  0  0  0  0
    9.8187   -2.0895   25.5800 C   0  0  0  0  0  0  0  0  0  0  0  0
    5.6473   -8.7216   15.3158 C   0  0  0  0  0  0  0  0  0  0  0  0
   10.7581   -3.1233   19.4720 N   0  0  0  0  0  0  0  0  0  0  0  0
    9.9571   -4.0573   16.8866 C   0  0  0  0  0  0  0  0  0  0  0  0
    7.6213   -6.5618   16.0087 C   0  0  0  0  0  0  0  0  0  0  0  0
   10.8583   -2.6527   20.7222 C   0  0  0  0  0  0  0  0  0  0  0  0
   10.6412   -3.5089   21.7936 C   0  0  0  0  0  0  0  0  0  0  0  0
   10.4972   -3.8968   24.1589 C   0  0  0  0  0  0  0  0  0  0  0  0
    5.9260   -8.2736   16.5517 C   0  0  0  0  0  0  0  0  0  0  0  0
    3.8816   -9.1166   17.2493 C   0  0  0  0  0  0  0  0  0  0  0  0
   10.1297   -1.6575   23.2324 C   0  0  0  0  0  0  0  0  0  0  0  0
    9.4684   -1.6929   26.7263 F   0  0  0  0  0  0  0  0  0  0  0  0
    7.7963   -7.7906   17.9837 C   0  0  0  0  0  0  0  0  0  0  0  0
   10.5884   -3.0725   16.7902 O   0  0  0  0  0  0  0  0  0  0  0  0
   10.4323   -5.3494   20.3516 C   0  0  0  0  0  0  0  0  0  0  0  0
    7.1156   -7.5454   16.8218 C   0  0  0  0  0  0  0  0  0  0  0  0
   10.3885   -4.4388   19.2773 C   0  0  0  0  0  0  0  0  0  0  0  0
    4.5160   -9.3822   15.0841 C   0  0  0  0  0  0  0  0  0  0  0  0
  1  3  4  0
  1 24  4  0
  2  6  4  0
  2 15  4  0
  3  5  4  0
  3  6  4  0
  4 21  4  0
  4 29  4  0
  5 15  4  0
  5 28  1  0
  6 16  4  0
  7 18  4  0
  7 26  4  0
  8 18  1  0
  8 19  4  0
  8 22  4  0
  9 12  4  0
  9 19  4  0
 10 12  4  0
 10 22  4  0
 11 20  4  0
 11 21  4  0
 12 23  1  0
 13 20  4  0
 13 29  4  0
 14 17  4  0
 14 28  4  0
 15 25  2  0
 16 27  4  0
 17 18  4  0
 20 27  1  0
 24 27  4  0
 26 28  4  0
M  END
$$$$

 Created by Python create_sdf_string function

 29 33  0  0  0  0  0  0  0  0999 V2000
    8.8270   -7.0288   18.4251 C   0  0  0  0  0  0  0  0  0  0  0  0
    9.1576   -4.6236   15.8860 O   0  0  0  0  0  0  0  0  0  0  0  0
    9.1509   -5.9108   17.7177 C   0  0  0  0  0  0  0  0  0  0  0  0
    3.6373   -9.5349   16.0582 N   0  0  0  0  0  0  0  0  0  0  0  0
    9.9275   -4.8001   18.0438 N   0  0  0  0  0  0  0  0  0  0  0  0
    8.5908   -5.7425   16.4412 C   0  0  0  0  0  0  0  0  0  0  0  0
   10.5993   -4.8981   21.6068 C   0  0  0  0  0  0  0  0  0  0  0  0
   10.4258   -3.0106   23.0998 C   0  0  0  0  0  0  0  0  0  0  0  0
   10.2148   -3.4364   25.4200 C   0  0  0  0  0  0  0  0  0  0  0  0
    9.7853   -1.1840   24.4927 C   0  0  0  0  0  0  0  0  0  0  0  0
    5.0276   -8.5227   17.5352 C   0  0  0  0  0  0  0  0  0  0  0  0
    9.8187   -2.0895   25.5800 C   0  0  0  0  0  0  0  0  0  0  0  0
    5.6473   -8.7216   15.3158 C   0  0  0  0  0  0  0  0  0  0  0  0
   10.7581   -3.1233   19.4720 N   0  0  0  0  0  0  0  0  0  0  0  0
    9.9571   -4.0573   16.8866 C   0  0  0  0  0  0  0  0  0  0  0  0
    7.6213   -6.5618   16.0087 C   0  0  0  0  0  0  0  0  0  0  0  0
   10.8583   -2.6527   20.7222 C   0  0  0  0  0  0  0  0  0  0  0  0
   10.6412   -3.5089   21.7936 C   0  0  0  0  0  0  0  0  0  0  0  0
   10.4972   -3.8968   24.1589 C   0  0  0  0  0  0  0  0  0  0  0  0
    5.9260   -8.2736   16.5517 C   0  0  0  0  0  0  0  0  0  0  0  0
    3.8816   -9.1166   17.2493 C   0  0  0  0  0  0  0  0  0  0  0  0
   10.1297   -1.6575   23.2324 C   0  0  0  0  0  0  0  0  0  0  0  0
    9.4684   -1.6929   26.7263 F   0  0  0  0  0  0  0  0  0  0  0  0
    7.7963   -7.7906   17.9837 C   0  0  0  0  0  0  0  0  0  0  0  0
   10.5884   -3.0725   16.7902 O   0  0  0  0  0  0  0  0  0  0  0  0
   10.4323   -5.3494   20.3516 C   0  0  0  0  0  0  0  0  0  0  0  0
    7.1156   -7.5454   16.8218 C   0  0  0  0  0  0  0  0  0  0  0  0
   10.3885   -4.4388   19.2773 C   0  0  0  0  0  0  0  0  0  0  0  0
    4.5160   -9.3822   15.0841 C   0  0  0  0  0  0  0  0  0  0  0  0
  1  3  4  0
  1 24  4  0
  2  6  4  0
  2 15  4  0
  3  5  4  0
  3  6  4  0
  4 21  4  0
  4 29  4  0
  5 15  4  0
  5 28  1  0
  6 16  4  0
  7 18  4  0
  7 26  4  0
  8 18  1  0
  8 19  4  0
  8 22  4  0
  9 12  4  0
  9 19  4  0
 10 12  4  0
 10 22  4  0
 11 20  4  0
 11 21  4  0
 12 23  1  0
 13 20  4  0
 13 29  4  0
 14 17  4  0
 14 28  4  0
 15 25  2  0
 16 27  4  0
 17 18  4  0
 20 27  1  0
 24 27  4  0
 26 28  4  0
M  END
$$$$

 Created by Python create_sdf_string function

 29 33  0  0  0  0  0  0  0  0999 V2000
    8.8270   -7.0288   18.4251 C   0  0  0  0  0  0  0  0  0  0  0  0
    9.1576   -4.6236   15.8860 O   0  0  0  0  0  0  0  0  0  0  0  0
    9.1509   -5.9108   17.7177 C   0  0  0  0  0  0  0  0  0  0  0  0
    3.6373   -9.5349   16.0582 N   0  0  0  0  0  0  0  0  0  0  0  0
    9.9275   -4.8001   18.0438 N   0  0  0  0  0  0  0  0  0  0  0  0
    8.5908   -5.7425   16.4412 C   0  0  0  0  0  0  0  0  0  0  0  0
   10.5993   -4.8981   21.6068 C   0  0  0  0  0  0  0  0  0  0  0  0
   10.4258   -3.0106   23.0998 C   0  0  0  0  0  0  0  0  0  0  0  0
   10.2148   -3.4364   25.4200 C   0  0  0  0  0  0  0  0  0  0  0  0
    9.7853   -1.1840   24.4927 C   0  0  0  0  0  0  0  0  0  0  0  0
    5.0276   -8.5227   17.5352 C   0  0  0  0  0  0  0  0  0  0  0  0
    9.8187   -2.0895   25.5800 C   0  0  0  0  0  0  0  0  0  0  0  0
    5.6473   -8.7216   15.3158 C   0  0  0  0  0  0  0  0  0  0  0  0
   10.7581   -3.1233   19.4720 N   0  0  0  0  0  0  0  0  0  0  0  0
    9.9571   -4.0573   16.8866 C   0  0  0  0  0  0  0  0  0  0  0  0
    7.6213   -6.5618   16.0087 C   0  0  0  0  0  0  0  0  0  0  0  0
   10.8583   -2.6527   20.7222 C   0  0  0  0  0  0  0  0  0  0  0  0
   10.6412   -3.5089   21.7936 C   0  0  0  0  0  0  0  0  0  0  0  0
   10.4972   -3.8968   24.1589 C   0  0  0  0  0  0  0  0  0  0  0  0
    5.9260   -8.2736   16.5517 C   0  0  0  0  0  0  0  0  0  0  0  0
    3.8816   -9.1166   17.2493 C   0  0  0  0  0  0  0  0  0  0  0  0
   10.1297   -1.6575   23.2324 C   0  0  0  0  0  0  0  0  0  0  0  0
    9.4684   -1.6929   26.7263 F   0  0  0  0  0  0  0  0  0  0  0  0
    7.7963   -7.7906   17.9837 C   0  0  0  0  0  0  0  0  0  0  0  0
   10.5884   -3.0725   16.7902 O   0  0  0  0  0  0  0  0  0  0  0  0
   10.4323   -5.3494   20.3516 C   0  0  0  0  0  0  0  0  0  0  0  0
    7.1156   -7.5454   16.8218 C   0  0  0  0  0  0  0  0  0  0  0  0
   10.3885   -4.4388   19.2773 C   0  0  0  0  0  0  0  0  0  0  0  0
    4.5160   -9.3822   15.0841 C   0  0  0  0  0  0  0  0  0  0  0  0
  1  3  4  0
  1 24  4  0
  2  6  4  0
  2 15  4  0
  3  5  4  0
  3  6  4  0
  4 21  4  0
  4 29  4  0
  5 15  4  0
  5 28  1  0
  6 16  4  0
  7 18  4  0
  7 26  4  0
  8 18  1  0
  8 19  4  0
  8 22  4  0
  9 12  4  0
  9 19  4  0
 10 12  4  0
 10 22  4  0
 11 20  4  0
 11 21  4  0
 12 23  1  0
 13 20  4  0
 13 29  4  0
 14 17  4  0
 14 28  4  0
 15 25  2  0
 16 27  4  0
 17 18  4  0
 20 27  1  0
 24 27  4  0
 26 28  4  0
M  END
$$$$

 Created by Python create_sdf_string function

 29 33  0  0  0  0  0  0  0  0999 V2000
    8.8270   -7.0288   18.4251 C   0  0  0  0  0  0  0  0  0  0  0  0
    9.1576   -4.6236   15.8860 O   0  0  0  0  0  0  0  0  0  0  0  0
    9.1509   -5.9108   17.7177 C   0  0  0  0  0  0  0  0  0  0  0  0
    3.6373   -9.5349   16.0582 N   0  0  0  0  0  0  0  0  0  0  0  0
    9.9275   -4.8001   18.0438 N   0  0  0  0  0  0  0  0  0  0  0  0
    8.5908   -5.7425   16.4412 C   0  0  0  0  0  0  0  0  0  0  0  0
   10.5993   -4.8981   21.6068 C   0  0  0  0  0  0  0  0  0  0  0  0
   10.4258   -3.0106   23.0998 C   0  0  0  0  0  0  0  0  0  0  0  0
   10.2148   -3.4364   25.4200 C   0  0  0  0  0  0  0  0  0  0  0  0
    9.7853   -1.1840   24.4927 C   0  0  0  0  0  0  0  0  0  0  0  0
    5.0276   -8.5227   17.5352 C   0  0  0  0  0  0  0  0  0  0  0  0
    9.8187   -2.0895   25.5800 C   0  0  0  0  0  0  0  0  0  0  0  0
    5.6473   -8.7216   15.3158 C   0  0  0  0  0  0  0  0  0  0  0  0
   10.7581   -3.1233   19.4720 N   0  0  0  0  0  0  0  0  0  0  0  0
    9.9571   -4.0573   16.8866 C   0  0  0  0  0  0  0  0  0  0  0  0
    7.6213   -6.5618   16.0087 C   0  0  0  0  0  0  0  0  0  0  0  0
   10.8583   -2.6527   20.7222 C   0  0  0  0  0  0  0  0  0  0  0  0
   10.6412   -3.5089   21.7936 C   0  0  0  0  0  0  0  0  0  0  0  0
   10.4972   -3.8968   24.1589 C   0  0  0  0  0  0  0  0  0  0  0  0
    5.9260   -8.2736   16.5517 C   0  0  0  0  0  0  0  0  0  0  0  0
    3.8816   -9.1166   17.2493 C   0  0  0  0  0  0  0  0  0  0  0  0
   10.1297   -1.6575   23.2324 C   0  0  0  0  0  0  0  0  0  0  0  0
    9.4684   -1.6929   26.7263 F   0  0  0  0  0  0  0  0  0  0  0  0
    7.7963   -7.7906   17.9837 C   0  0  0  0  0  0  0  0  0  0  0  0
   10.5884   -3.0725   16.7902 O   0  0  0  0  0  0  0  0  0  0  0  0
   10.4323   -5.3494   20.3516 C   0  0  0  0  0  0  0  0  0  0  0  0
    7.1156   -7.5454   16.8218 C   0  0  0  0  0  0  0  0  0  0  0  0
   10.3885   -4.4388   19.2773 C   0  0  0  0  0  0  0  0  0  0  0  0
    4.5160   -9.3822   15.0841 C   0  0  0  0  0  0  0  0  0  0  0  0
  1  3  4  0
  1 24  4  0
  2  6  4  0
  2 15  4  0
  3  5  4  0
  3  6  4  0
  4 21  4  0
  4 29  4  0
  5 15  4  0
  5 28  1  0
  6 16  4  0
  7 18  4  0
  7 26  4  0
  8 18  1  0
  8 19  4  0
  8 22  4  0
  9 12  4  0
  9 19  4  0
 10 12  4  0
 10 22  4  0
 11 20  4  0
 11 21  4  0
 12 23  1  0
 13 20  4  0
 13 29  4  0
 14 17  4  0
 14 28  4  0
 15 25  2  0
 16 27  4  0
 17 18  4  0
 20 27  1  0
 24 27  4  0
 26 28  4  0
M  END
$$$$

 Created by Python create_sdf_string function

 29 33  0  0  0  0  0  0  0  0999 V2000
    8.8270   -7.0288   18.4251 C   0  0  0  0  0  0  0  0  0  0  0  0
    9.1576   -4.6236   15.8860 O   0  0  0  0  0  0  0  0  0  0  0  0
    9.1509   -5.9108   17.7177 C   0  0  0  0  0  0  0  0  0  0  0  0
    3.6373   -9.5349   16.0582 N   0  0  0  0  0  0  0  0  0  0  0  0
    9.9275   -4.8001   18.0438 N   0  0  0  0  0  0  0  0  0  0  0  0
    8.5908   -5.7425   16.4412 C   0  0  0  0  0  0  0  0  0  0  0  0
   10.5993   -4.8981   21.6068 C   0  0  0  0  0  0  0  0  0  0  0  0
   10.4258   -3.0106   23.0998 C   0  0  0  0  0  0  0  0  0  0  0  0
   10.2148   -3.4364   25.4200 C   0  0  0  0  0  0  0  0  0  0  0  0
    9.7853   -1.1840   24.4927 C   0  0  0  0  0  0  0  0  0  0  0  0
    5.0276   -8.5227   17.5352 C   0  0  0  0  0  0  0  0  0  0  0  0
    9.8187   -2.0895   25.5800 C   0  0  0  0  0  0  0  0  0  0  0  0
    5.6473   -8.7216   15.3158 C   0  0  0  0  0  0  0  0  0  0  0  0
   10.7581   -3.1233   19.4720 N   0  0  0  0  0  0  0  0  0  0  0  0
    9.9571   -4.0573   16.8866 C   0  0  0  0  0  0  0  0  0  0  0  0
    7.6213   -6.5618   16.0087 C   0  0  0  0  0  0  0  0  0  0  0  0
   10.8583   -2.6527   20.7222 C   0  0  0  0  0  0  0  0  0  0  0  0
   10.6412   -3.5089   21.7936 C   0  0  0  0  0  0  0  0  0  0  0  0
   10.4972   -3.8968   24.1589 C   0  0  0  0  0  0  0  0  0  0  0  0
    5.9260   -8.2736   16.5517 C   0  0  0  0  0  0  0  0  0  0  0  0
    3.8816   -9.1166   17.2493 C   0  0  0  0  0  0  0  0  0  0  0  0
   10.1297   -1.6575   23.2324 C   0  0  0  0  0  0  0  0  0  0  0  0
    9.4684   -1.6929   26.7263 F   0  0  0  0  0  0  0  0  0  0  0  0
    7.7963   -7.7906   17.9837 C   0  0  0  0  0  0  0  0  0  0  0  0
   10.5884   -3.0725   16.7902 O   0  0  0  0  0  0  0  0  0  0  0  0
   10.4323   -5.3494   20.3516 C   0  0  0  0  0  0  0  0  0  0  0  0
    7.1156   -7.5454   16.8218 C   0  0  0  0  0  0  0  0  0  0  0  0
   10.3885   -4.4388   19.2773 C   0  0  0  0  0  0  0  0  0  0  0  0
    4.5160   -9.3822   15.0841 C   0  0  0  0  0  0  0  0  0  0  0  0
  1  3  4  0
  1 24  4  0
  2  6  4  0
  2 15  4  0
  3  5  4  0
  3  6  4  0
  4 21  4  0
  4 29  4  0
  5 15  4  0
  5 28  1  0
  6 16  4  0
  7 18  4  0
  7 26  4  0
  8 18  1  0
  8 19  4  0
  8 22  4  0
  9 12  4  0
  9 19  4  0
 10 12  4  0
 10 22  4  0
 11 20  4  0
 11 21  4  0
 12 23  1  0
 13 20  4  0
 13 29  4  0
 14 17  4  0
 14 28  4  0
 15 25  2  0
 16 27  4  0
 17 18  4  0
 20 27  1  0
 24 27  4  0
 26 28  4  0
M  END
$$$$

 Created by Python create_sdf_string function

 29 33  0  0  0  0  0  0  0  0999 V2000
    8.8270   -7.0288   18.4251 C   0  0  0  0  0  0  0  0  0  0  0  0
    9.1576   -4.6236   15.8860 O   0  0  0  0  0  0  0  0  0  0  0  0
    9.1509   -5.9108   17.7177 C   0  0  0  0  0  0  0  0  0  0  0  0
    3.6373   -9.5349   16.0582 N   0  0  0  0  0  0  0  0  0  0  0  0
    9.9275   -4.8001   18.0438 N   0  0  0  0  0  0  0  0  0  0  0  0
    8.5908   -5.7425   16.4412 C   0  0  0  0  0  0  0  0  0  0  0  0
   10.5993   -4.8981   21.6068 C   0  0  0  0  0  0  0  0  0  0  0  0
   10.4258   -3.0106   23.0998 C   0  0  0  0  0  0  0  0  0  0  0  0
   10.2148   -3.4364   25.4200 C   0  0  0  0  0  0  0  0  0  0  0  0
    9.7853   -1.1840   24.4927 C   0  0  0  0  0  0  0  0  0  0  0  0
    5.0276   -8.5227   17.5352 C   0  0  0  0  0  0  0  0  0  0  0  0
    9.8187   -2.0895   25.5800 C   0  0  0  0  0  0  0  0  0  0  0  0
    5.6473   -8.7216   15.3158 C   0  0  0  0  0  0  0  0  0  0  0  0
   10.7581   -3.1233   19.4720 N   0  0  0  0  0  0  0  0  0  0  0  0
    9.9571   -4.0573   16.8866 C   0  0  0  0  0  0  0  0  0  0  0  0
    7.6213   -6.5618   16.0087 C   0  0  0  0  0  0  0  0  0  0  0  0
   10.8583   -2.6527   20.7222 C   0  0  0  0  0  0  0  0  0  0  0  0
   10.6412   -3.5089   21.7936 C   0  0  0  0  0  0  0  0  0  0  0  0
   10.4972   -3.8968   24.1589 C   0  0  0  0  0  0  0  0  0  0  0  0
    5.9260   -8.2736   16.5517 C   0  0  0  0  0  0  0  0  0  0  0  0
    3.8816   -9.1166   17.2493 C   0  0  0  0  0  0  0  0  0  0  0  0
   10.1297   -1.6575   23.2324 C   0  0  0  0  0  0  0  0  0  0  0  0
    9.4684   -1.6929   26.7263 F   0  0  0  0  0  0  0  0  0  0  0  0
    7.7963   -7.7906   17.9837 C   0  0  0  0  0  0  0  0  0  0  0  0
   10.5884   -3.0725   16.7902 O   0  0  0  0  0  0  0  0  0  0  0  0
   10.4323   -5.3494   20.3516 C   0  0  0  0  0  0  0  0  0  0  0  0
    7.1156   -7.5454   16.8218 C   0  0  0  0  0  0  0  0  0  0  0  0
   10.3885   -4.4388   19.2773 C   0  0  0  0  0  0  0  0  0  0  0  0
    4.5160   -9.3822   15.0841 C   0  0  0  0  0  0  0  0  0  0  0  0
  1  3  4  0
  1 24  4  0
  2  6  4  0
  2 15  4  0
  3  5  4  0
  3  6  4  0
  4 21  4  0
  4 29  4  0
  5 15  4  0
  5 28  1  0
  6 16  4  0
  7 18  4  0
  7 26  4  0
  8 18  1  0
  8 19  4  0
  8 22  4  0
  9 12  4  0
  9 19  4  0
 10 12  4  0
 10 22  4  0
 11 20  4  0
 11 21  4  0
 12 23  1  0
 13 20  4  0
 13 29  4  0
 14 17  4  0
 14 28  4  0
 15 25  2  0
 16 27  4  0
 17 18  4  0
 20 27  1  0
 24 27  4  0
 26 28  4  0
M  END
$$$$

 Created by Python create_sdf_string function

 29 33  0  0  0  0  0  0  0  0999 V2000
    8.8270   -7.0288   18.4251 C   0  0  0  0  0  0  0  0  0  0  0  0
    9.1576   -4.6236   15.8860 O   0  0  0  0  0  0  0  0  0  0  0  0
    9.1509   -5.9108   17.7177 C   0  0  0  0  0  0  0  0  0  0  0  0
    3.6373   -9.5349   16.0582 N   0  0  0  0  0  0  0  0  0  0  0  0
    9.9275   -4.8001   18.0438 N   0  0  0  0  0  0  0  0  0  0  0  0
    8.5908   -5.7425   16.4412 C   0  0  0  0  0  0  0  0  0  0  0  0
   10.5993   -4.8981   21.6068 C   0  0  0  0  0  0  0  0  0  0  0  0
   10.4258   -3.0106   23.0998 C   0  0  0  0  0  0  0  0  0  0  0  0
   10.2148   -3.4364   25.4200 C   0  0  0  0  0  0  0  0  0  0  0  0
    9.7853   -1.1840   24.4927 C   0  0  0  0  0  0  0  0  0  0  0  0
    5.0276   -8.5227   17.5352 C   0  0  0  0  0  0  0  0  0  0  0  0
    9.8187   -2.0895   25.5800 C   0  0  0  0  0  0  0  0  0  0  0  0
    5.6473   -8.7216   15.3158 C   0  0  0  0  0  0  0  0  0  0  0  0
   10.7581   -3.1233   19.4720 N   0  0  0  0  0  0  0  0  0  0  0  0
    9.9571   -4.0573   16.8866 C   0  0  0  0  0  0  0  0  0  0  0  0
    7.6213   -6.5618   16.0087 C   0  0  0  0  0  0  0  0  0  0  0  0
   10.8583   -2.6527   20.7222 C   0  0  0  0  0  0  0  0  0  0  0  0
   10.6412   -3.5089   21.7936 C   0  0  0  0  0  0  0  0  0  0  0  0
   10.4972   -3.8968   24.1589 C   0  0  0  0  0  0  0  0  0  0  0  0
    5.9260   -8.2736   16.5517 C   0  0  0  0  0  0  0  0  0  0  0  0
    3.8816   -9.1166   17.2493 C   0  0  0  0  0  0  0  0  0  0  0  0
   10.1297   -1.6575   23.2324 C   0  0  0  0  0  0  0  0  0  0  0  0
    9.4684   -1.6929   26.7263 F   0  0  0  0  0  0  0  0  0  0  0  0
    7.7963   -7.7906   17.9837 C   0  0  0  0  0  0  0  0  0  0  0  0
   10.5884   -3.0725   16.7902 O   0  0  0  0  0  0  0  0  0  0  0  0
   10.4323   -5.3494   20.3516 C   0  0  0  0  0  0  0  0  0  0  0  0
    7.1156   -7.5454   16.8218 C   0  0  0  0  0  0  0  0  0  0  0  0
   10.3885   -4.4388   19.2773 C   0  0  0  0  0  0  0  0  0  0  0  0
    4.5160   -9.3822   15.0841 C   0  0  0  0  0  0  0  0  0  0  0  0
  1  3  4  0
  1 24  4  0
  2  6  4  0
  2 15  4  0
  3  5  4  0
  3  6  4  0
  4 21  4  0
  4 29  4  0
  5 15  4  0
  5 28  1  0
  6 16  4  0
  7 18  4  0
  7 26  4  0
  8 18  1  0
  8 19  4  0
  8 22  4  0
  9 12  4  0
  9 19  4  0
 10 12  4  0
 10 22  4  0
 11 20  4  0
 11 21  4  0
 12 23  1  0
 13 20  4  0
 13 29  4  0
 14 17  4  0
 14 28  4  0
 15 25  2  0
 16 27  4  0
 17 18  4  0
 20 27  1  0
 24 27  4  0
 26 28  4  0
M  END
$$$$

 Created by Python create_sdf_string function

 29 33  0  0  0  0  0  0  0  0999 V2000
    8.8270   -7.0288   18.4251 C   0  0  0  0  0  0  0  0  0  0  0  0
    9.1576   -4.6236   15.8860 O   0  0  0  0  0  0  0  0  0  0  0  0
    9.1509   -5.9108   17.7177 C   0  0  0  0  0  0  0  0  0  0  0  0
    3.6373   -9.5349   16.0582 N   0  0  0  0  0  0  0  0  0  0  0  0
    9.9275   -4.8001   18.0438 N   0  0  0  0  0  0  0  0  0  0  0  0
    8.5908   -5.7425   16.4412 C   0  0  0  0  0  0  0  0  0  0  0  0
   10.5993   -4.8981   21.6068 C   0  0  0  0  0  0  0  0  0  0  0  0
   10.4258   -3.0106   23.0998 C   0  0  0  0  0  0  0  0  0  0  0  0
   10.2148   -3.4364   25.4200 C   0  0  0  0  0  0  0  0  0  0  0  0
    9.7853   -1.1840   24.4927 C   0  0  0  0  0  0  0  0  0  0  0  0
    5.0276   -8.5227   17.5352 C   0  0  0  0  0  0  0  0  0  0  0  0
    9.8187   -2.0895   25.5800 C   0  0  0  0  0  0  0  0  0  0  0  0
    5.6473   -8.7216   15.3158 C   0  0  0  0  0  0  0  0  0  0  0  0
   10.7581   -3.1233   19.4720 N   0  0  0  0  0  0  0  0  0  0  0  0
    9.9571   -4.0573   16.8866 C   0  0  0  0  0  0  0  0  0  0  0  0
    7.6213   -6.5618   16.0087 C   0  0  0  0  0  0  0  0  0  0  0  0
   10.8583   -2.6527   20.7222 C   0  0  0  0  0  0  0  0  0  0  0  0
   10.6412   -3.5089   21.7936 C   0  0  0  0  0  0  0  0  0  0  0  0
   10.4972   -3.8968   24.1589 C   0  0  0  0  0  0  0  0  0  0  0  0
    5.9260   -8.2736   16.5517 C   0  0  0  0  0  0  0  0  0  0  0  0
    3.8816   -9.1166   17.2493 C   0  0  0  0  0  0  0  0  0  0  0  0
   10.1297   -1.6575   23.2324 C   0  0  0  0  0  0  0  0  0  0  0  0
    9.4684   -1.6929   26.7263 F   0  0  0  0  0  0  0  0  0  0  0  0
    7.7963   -7.7906   17.9837 C   0  0  0  0  0  0  0  0  0  0  0  0
   10.5884   -3.0725   16.7902 O   0  0  0  0  0  0  0  0  0  0  0  0
   10.4323   -5.3494   20.3516 C   0  0  0  0  0  0  0  0  0  0  0  0
    7.1156   -7.5454   16.8218 C   0  0  0  0  0  0  0  0  0  0  0  0
   10.3885   -4.4388   19.2773 C   0  0  0  0  0  0  0  0  0  0  0  0
    4.5160   -9.3822   15.0841 C   0  0  0  0  0  0  0  0  0  0  0  0
  1  3  4  0
  1 24  4  0
  2  6  4  0
  2 15  4  0
  3  5  4  0
  3  6  4  0
  4 21  4  0
  4 29  4  0
  5 15  4  0
  5 28  1  0
  6 16  4  0
  7 18  4  0
  7 26  4  0
  8 18  1  0
  8 19  4  0
  8 22  4  0
  9 12  4  0
  9 19  4  0
 10 12  4  0
 10 22  4  0
 11 20  4  0
 11 21  4  0
 12 23  1  0
 13 20  4  0
 13 29  4  0
 14 17  4  0
 14 28  4  0
 15 25  2  0
 16 27  4  0
 17 18  4  0
 20 27  1  0
 24 27  4  0
 26 28  4  0
M  END
$$$$

 Created by Python create_sdf_string function

 29 33  0  0  0  0  0  0  0  0999 V2000
    8.8270   -7.0288   18.4251 C   0  0  0  0  0  0  0  0  0  0  0  0
    9.1576   -4.6236   15.8860 O   0  0  0  0  0  0  0  0  0  0  0  0
    9.1509   -5.9108   17.7177 C   0  0  0  0  0  0  0  0  0  0  0  0
    3.6373   -9.5349   16.0582 N   0  0  0  0  0  0  0  0  0  0  0  0
    9.9275   -4.8001   18.0438 N   0  0  0  0  0  0  0  0  0  0  0  0
    8.5908   -5.7425   16.4412 C   0  0  0  0  0  0  0  0  0  0  0  0
   10.5993   -4.8981   21.6068 C   0  0  0  0  0  0  0  0  0  0  0  0
   10.4258   -3.0106   23.0998 C   0  0  0  0  0  0  0  0  0  0  0  0
   10.2148   -3.4364   25.4200 C   0  0  0  0  0  0  0  0  0  0  0  0
    9.7853   -1.1840   24.4927 C   0  0  0  0  0  0  0  0  0  0  0  0
    5.0276   -8.5227   17.5352 C   0  0  0  0  0  0  0  0  0  0  0  0
    9.8187   -2.0895   25.5800 C   0  0  0  0  0  0  0  0  0  0  0  0
    5.6473   -8.7216   15.3158 C   0  0  0  0  0  0  0  0  0  0  0  0
   10.7581   -3.1233   19.4720 N   0  0  0  0  0  0  0  0  0  0  0  0
    9.9571   -4.0573   16.8866 C   0  0  0  0  0  0  0  0  0  0  0  0
    7.6213   -6.5618   16.0087 C   0  0  0  0  0  0  0  0  0  0  0  0
   10.8583   -2.6527   20.7222 C   0  0  0  0  0  0  0  0  0  0  0  0
   10.6412   -3.5089   21.7936 C   0  0  0  0  0  0  0  0  0  0  0  0
   10.4972   -3.8968   24.1589 C   0  0  0  0  0  0  0  0  0  0  0  0
    5.9260   -8.2736   16.5517 C   0  0  0  0  0  0  0  0  0  0  0  0
    3.8816   -9.1166   17.2493 C   0  0  0  0  0  0  0  0  0  0  0  0
   10.1297   -1.6575   23.2324 C   0  0  0  0  0  0  0  0  0  0  0  0
    9.4684   -1.6929   26.7263 F   0  0  0  0  0  0  0  0  0  0  0  0
    7.7963   -7.7906   17.9837 C   0  0  0  0  0  0  0  0  0  0  0  0
   10.5884   -3.0725   16.7902 O   0  0  0  0  0  0  0  0  0  0  0  0
   10.4323   -5.3494   20.3516 C   0  0  0  0  0  0  0  0  0  0  0  0
    7.1156   -7.5454   16.8218 C   0  0  0  0  0  0  0  0  0  0  0  0
   10.3885   -4.4388   19.2773 C   0  0  0  0  0  0  0  0  0  0  0  0
    4.5160   -9.3822   15.0841 C   0  0  0  0  0  0  0  0  0  0  0  0
  1  3  4  0
  1 24  4  0
  2  6  4  0
  2 15  4  0
  3  5  4  0
  3  6  4  0
  4 21  4  0
  4 29  4  0
  5 15  4  0
  5 28  1  0
  6 16  4  0
  7 18  4  0
  7 26  4  0
  8 18  1  0
  8 19  4  0
  8 22  4  0
  9 12  4  0
  9 19  4  0
 10 12  4  0
 10 22  4  0
 11 20  4  0
 11 21  4  0
 12 23  1  0
 13 20  4  0
 13 29  4  0
 14 17  4  0
 14 28  4  0
 15 25  2  0
 16 27  4  0
 17 18  4  0
 20 27  1  0
 24 27  4  0
 26 28  4  0
M  END
$$$$

 Created by Python create_sdf_string function

 29 33  0  0  0  0  0  0  0  0999 V2000
    8.8270   -7.0288   18.4251 C   0  0  0  0  0  0  0  0  0  0  0  0
    9.1576   -4.6236   15.8860 O   0  0  0  0  0  0  0  0  0  0  0  0
    9.1509   -5.9108   17.7177 C   0  0  0  0  0  0  0  0  0  0  0  0
    3.6373   -9.5349   16.0582 N   0  0  0  0  0  0  0  0  0  0  0  0
    9.9275   -4.8001   18.0438 N   0  0  0  0  0  0  0  0  0  0  0  0
    8.5908   -5.7425   16.4412 C   0  0  0  0  0  0  0  0  0  0  0  0
   10.5993   -4.8981   21.6068 C   0  0  0  0  0  0  0  0  0  0  0  0
   10.4258   -3.0106   23.0998 C   0  0  0  0  0  0  0  0  0  0  0  0
   10.2148   -3.4364   25.4200 C   0  0  0  0  0  0  0  0  0  0  0  0
    9.7853   -1.1840   24.4927 C   0  0  0  0  0  0  0  0  0  0  0  0
    5.0276   -8.5227   17.5352 C   0  0  0  0  0  0  0  0  0  0  0  0
    9.8187   -2.0895   25.5800 C   0  0  0  0  0  0  0  0  0  0  0  0
    5.6473   -8.7216   15.3158 C   0  0  0  0  0  0  0  0  0  0  0  0
   10.7581   -3.1233   19.4720 N   0  0  0  0  0  0  0  0  0  0  0  0
    9.9571   -4.0573   16.8866 C   0  0  0  0  0  0  0  0  0  0  0  0
    7.6213   -6.5618   16.0087 C   0  0  0  0  0  0  0  0  0  0  0  0
   10.8583   -2.6527   20.7222 C   0  0  0  0  0  0  0  0  0  0  0  0
   10.6412   -3.5089   21.7936 C   0  0  0  0  0  0  0  0  0  0  0  0
   10.4972   -3.8968   24.1589 C   0  0  0  0  0  0  0  0  0  0  0  0
    5.9260   -8.2736   16.5517 C   0  0  0  0  0  0  0  0  0  0  0  0
    3.8816   -9.1166   17.2493 C   0  0  0  0  0  0  0  0  0  0  0  0
   10.1297   -1.6575   23.2324 C   0  0  0  0  0  0  0  0  0  0  0  0
    9.4684   -1.6929   26.7263 F   0  0  0  0  0  0  0  0  0  0  0  0
    7.7963   -7.7906   17.9837 C   0  0  0  0  0  0  0  0  0  0  0  0
   10.5884   -3.0725   16.7902 O   0  0  0  0  0  0  0  0  0  0  0  0
   10.4323   -5.3494   20.3516 C   0  0  0  0  0  0  0  0  0  0  0  0
    7.1156   -7.5454   16.8218 C   0  0  0  0  0  0  0  0  0  0  0  0
   10.3885   -4.4388   19.2773 C   0  0  0  0  0  0  0  0  0  0  0  0
    4.5160   -9.3822   15.0841 C   0  0  0  0  0  0  0  0  0  0  0  0
  1  3  4  0
  1 24  4  0
  2  6  4  0
  2 15  4  0
  3  5  4  0
  3  6  4  0
  4 21  4  0
  4 29  4  0
  5 15  4  0
  5 28  1  0
  6 16  4  0
  7 18  4  0
  7 26  4  0
  8 18  1  0
  8 19  4  0
  8 22  4  0
  9 12  4  0
  9 19  4  0
 10 12  4  0
 10 22  4  0
 11 20  4  0
 11 21  4  0
 12 23  1  0
 13 20  4  0
 13 29  4  0
 14 17  4  0
 14 28  4  0
 15 25  2  0
 16 27  4  0
 17 18  4  0
 20 27  1  0
 24 27  4  0
 26 28  4  0
M  END
$$$$

 Created by Python create_sdf_string function

 29 33  0  0  0  0  0  0  0  0999 V2000
    8.8270   -7.0288   18.4251 C   0  0  0  0  0  0  0  0  0  0  0  0
    9.1576   -4.6236   15.8860 O   0  0  0  0  0  0  0  0  0  0  0  0
    9.1509   -5.9108   17.7177 C   0  0  0  0  0  0  0  0  0  0  0  0
    3.6373   -9.5349   16.0582 N   0  0  0  0  0  0  0  0  0  0  0  0
    9.9275   -4.8001   18.0438 N   0  0  0  0  0  0  0  0  0  0  0  0
    8.5908   -5.7425   16.4412 C   0  0  0  0  0  0  0  0  0  0  0  0
   10.5993   -4.8981   21.6068 C   0  0  0  0  0  0  0  0  0  0  0  0
   10.4258   -3.0106   23.0998 C   0  0  0  0  0  0  0  0  0  0  0  0
   10.2148   -3.4364   25.4200 C   0  0  0  0  0  0  0  0  0  0  0  0
    9.7853   -1.1840   24.4927 C   0  0  0  0  0  0  0  0  0  0  0  0
    5.0276   -8.5227   17.5352 C   0  0  0  0  0  0  0  0  0  0  0  0
    9.8187   -2.0895   25.5800 C   0  0  0  0  0  0  0  0  0  0  0  0
    5.6473   -8.7216   15.3158 C   0  0  0  0  0  0  0  0  0  0  0  0
   10.7581   -3.1233   19.4720 N   0  0  0  0  0  0  0  0  0  0  0  0
    9.9571   -4.0573   16.8866 C   0  0  0  0  0  0  0  0  0  0  0  0
    7.6213   -6.5618   16.0087 C   0  0  0  0  0  0  0  0  0  0  0  0
   10.8583   -2.6527   20.7222 C   0  0  0  0  0  0  0  0  0  0  0  0
   10.6412   -3.5089   21.7936 C   0  0  0  0  0  0  0  0  0  0  0  0
   10.4972   -3.8968   24.1589 C   0  0  0  0  0  0  0  0  0  0  0  0
    5.9260   -8.2736   16.5517 C   0  0  0  0  0  0  0  0  0  0  0  0
    3.8816   -9.1166   17.2493 C   0  0  0  0  0  0  0  0  0  0  0  0
   10.1297   -1.6575   23.2324 C   0  0  0  0  0  0  0  0  0  0  0  0
    9.4684   -1.6929   26.7263 F   0  0  0  0  0  0  0  0  0  0  0  0
    7.7963   -7.7906   17.9837 C   0  0  0  0  0  0  0  0  0  0  0  0
   10.5884   -3.0725   16.7902 O   0  0  0  0  0  0  0  0  0  0  0  0
   10.4323   -5.3494   20.3516 C   0  0  0  0  0  0  0  0  0  0  0  0
    7.1156   -7.5454   16.8218 C   0  0  0  0  0  0  0  0  0  0  0  0
   10.3885   -4.4388   19.2773 C   0  0  0  0  0  0  0  0  0  0  0  0
    4.5160   -9.3822   15.0841 C   0  0  0  0  0  0  0  0  0  0  0  0
  1  3  4  0
  1 24  4  0
  2  6  4  0
  2 15  4  0
  3  5  4  0
  3  6  4  0
  4 21  4  0
  4 29  4  0
  5 15  4  0
  5 28  1  0
  6 16  4  0
  7 18  4  0
  7 26  4  0
  8 18  1  0
  8 19  4  0
  8 22  4  0
  9 12  4  0
  9 19  4  0
 10 12  4  0
 10 22  4  0
 11 20  4  0
 11 21  4  0
 12 23  1  0
 13 20  4  0
 13 29  4  0
 14 17  4  0
 14 28  4  0
 15 25  2  0
 16 27  4  0
 17 18  4  0
 20 27  1  0
 24 27  4  0
 26 28  4  0
M  END
$$$$

 Created by Python create_sdf_string function

 29 33  0  0  0  0  0  0  0  0999 V2000
    8.8270   -7.0288   18.4251 C   0  0  0  0  0  0  0  0  0  0  0  0
    9.1576   -4.6236   15.8860 O   0  0  0  0  0  0  0  0  0  0  0  0
    9.1509   -5.9108   17.7177 C   0  0  0  0  0  0  0  0  0  0  0  0
    3.6373   -9.5349   16.0582 N   0  0  0  0  0  0  0  0  0  0  0  0
    9.9275   -4.8001   18.0438 N   0  0  0  0  0  0  0  0  0  0  0  0
    8.5908   -5.7425   16.4412 C   0  0  0  0  0  0  0  0  0  0  0  0
   10.5993   -4.8981   21.6068 C   0  0  0  0  0  0  0  0  0  0  0  0
   10.4258   -3.0106   23.0998 C   0  0  0  0  0  0  0  0  0  0  0  0
   10.2148   -3.4364   25.4200 C   0  0  0  0  0  0  0  0  0  0  0  0
    9.7853   -1.1840   24.4927 C   0  0  0  0  0  0  0  0  0  0  0  0
    5.0276   -8.5227   17.5352 C   0  0  0  0  0  0  0  0  0  0  0  0
    9.8187   -2.0895   25.5800 C   0  0  0  0  0  0  0  0  0  0  0  0
    5.6473   -8.7216   15.3158 C   0  0  0  0  0  0  0  0  0  0  0  0
   10.7581   -3.1233   19.4720 N   0  0  0  0  0  0  0  0  0  0  0  0
    9.9571   -4.0573   16.8866 C   0  0  0  0  0  0  0  0  0  0  0  0
    7.6213   -6.5618   16.0087 C   0  0  0  0  0  0  0  0  0  0  0  0
   10.8583   -2.6527   20.7222 C   0  0  0  0  0  0  0  0  0  0  0  0
   10.6412   -3.5089   21.7936 C   0  0  0  0  0  0  0  0  0  0  0  0
   10.4972   -3.8968   24.1589 C   0  0  0  0  0  0  0  0  0  0  0  0
    5.9260   -8.2736   16.5517 C   0  0  0  0  0  0  0  0  0  0  0  0
    3.8816   -9.1166   17.2493 C   0  0  0  0  0  0  0  0  0  0  0  0
   10.1297   -1.6575   23.2324 C   0  0  0  0  0  0  0  0  0  0  0  0
    9.4684   -1.6929   26.7263 F   0  0  0  0  0  0  0  0  0  0  0  0
    7.7963   -7.7906   17.9837 C   0  0  0  0  0  0  0  0  0  0  0  0
   10.5884   -3.0725   16.7902 O   0  0  0  0  0  0  0  0  0  0  0  0
   10.4323   -5.3494   20.3516 C   0  0  0  0  0  0  0  0  0  0  0  0
    7.1156   -7.5454   16.8218 C   0  0  0  0  0  0  0  0  0  0  0  0
   10.3885   -4.4388   19.2773 C   0  0  0  0  0  0  0  0  0  0  0  0
    4.5160   -9.3822   15.0841 C   0  0  0  0  0  0  0  0  0  0  0  0
  1  3  4  0
  1 24  4  0
  2  6  4  0
  2 15  4  0
  3  5  4  0
  3  6  4  0
  4 21  4  0
  4 29  4  0
  5 15  4  0
  5 28  1  0
  6 16  4  0
  7 18  4  0
  7 26  4  0
  8 18  1  0
  8 19  4  0
  8 22  4  0
  9 12  4  0
  9 19  4  0
 10 12  4  0
 10 22  4  0
 11 20  4  0
 11 21  4  0
 12 23  1  0
 13 20  4  0
 13 29  4  0
 14 17  4  0
 14 28  4  0
 15 25  2  0
 16 27  4  0
 17 18  4  0
 20 27  1  0
 24 27  4  0
 26 28  4  0
M  END
$$$$

 Created by Python create_sdf_string function

 29 33  0  0  0  0  0  0  0  0999 V2000
    8.8270   -7.0288   18.4251 C   0  0  0  0  0  0  0  0  0  0  0  0
    9.1576   -4.6236   15.8860 O   0  0  0  0  0  0  0  0  0  0  0  0
    9.1509   -5.9108   17.7177 C   0  0  0  0  0  0  0  0  0  0  0  0
    3.6373   -9.5349   16.0582 N   0  0  0  0  0  0  0  0  0  0  0  0
    9.9275   -4.8001   18.0438 N   0  0  0  0  0  0  0  0  0  0  0  0
    8.5908   -5.7425   16.4412 C   0  0  0  0  0  0  0  0  0  0  0  0
   10.5993   -4.8981   21.6068 C   0  0  0  0  0  0  0  0  0  0  0  0
   10.4258   -3.0106   23.0998 C   0  0  0  0  0  0  0  0  0  0  0  0
   10.2148   -3.4364   25.4200 C   0  0  0  0  0  0  0  0  0  0  0  0
    9.7853   -1.1840   24.4927 C   0  0  0  0  0  0  0  0  0  0  0  0
    5.0276   -8.5227   17.5352 C   0  0  0  0  0  0  0  0  0  0  0  0
    9.8187   -2.0895   25.5800 C   0  0  0  0  0  0  0  0  0  0  0  0
    5.6473   -8.7216   15.3158 C   0  0  0  0  0  0  0  0  0  0  0  0
   10.7581   -3.1233   19.4720 N   0  0  0  0  0  0  0  0  0  0  0  0
    9.9571   -4.0573   16.8866 C   0  0  0  0  0  0  0  0  0  0  0  0
    7.6213   -6.5618   16.0087 C   0  0  0  0  0  0  0  0  0  0  0  0
   10.8583   -2.6527   20.7222 C   0  0  0  0  0  0  0  0  0  0  0  0
   10.6412   -3.5089   21.7936 C   0  0  0  0  0  0  0  0  0  0  0  0
   10.4972   -3.8968   24.1589 C   0  0  0  0  0  0  0  0  0  0  0  0
    5.9260   -8.2736   16.5517 C   0  0  0  0  0  0  0  0  0  0  0  0
    3.8816   -9.1166   17.2493 C   0  0  0  0  0  0  0  0  0  0  0  0
   10.1297   -1.6575   23.2324 C   0  0  0  0  0  0  0  0  0  0  0  0
    9.4684   -1.6929   26.7263 F   0  0  0  0  0  0  0  0  0  0  0  0
    7.7963   -7.7906   17.9837 C   0  0  0  0  0  0  0  0  0  0  0  0
   10.5884   -3.0725   16.7902 O   0  0  0  0  0  0  0  0  0  0  0  0
   10.4323   -5.3494   20.3516 C   0  0  0  0  0  0  0  0  0  0  0  0
    7.1156   -7.5454   16.8218 C   0  0  0  0  0  0  0  0  0  0  0  0
   10.3885   -4.4388   19.2773 C   0  0  0  0  0  0  0  0  0  0  0  0
    4.5160   -9.3822   15.0841 C   0  0  0  0  0  0  0  0  0  0  0  0
  1  3  4  0
  1 24  4  0
  2  6  4  0
  2 15  4  0
  3  5  4  0
  3  6  4  0
  4 21  4  0
  4 29  4  0
  5 15  4  0
  5 28  1  0
  6 16  4  0
  7 18  4  0
  7 26  4  0
  8 18  1  0
  8 19  4  0
  8 22  4  0
  9 12  4  0
  9 19  4  0
 10 12  4  0
 10 22  4  0
 11 20  4  0
 11 21  4  0
 12 23  1  0
 13 20  4  0
 13 29  4  0
 14 17  4  0
 14 28  4  0
 15 25  2  0
 16 27  4  0
 17 18  4  0
 20 27  1  0
 24 27  4  0
 26 28  4  0
M  END
$$$$

 Created by Python create_sdf_string function

 29 33  0  0  0  0  0  0  0  0999 V2000
    8.8270   -7.0288   18.4251 C   0  0  0  0  0  0  0  0  0  0  0  0
    9.1576   -4.6236   15.8860 O   0  0  0  0  0  0  0  0  0  0  0  0
    9.1509   -5.9108   17.7177 C   0  0  0  0  0  0  0  0  0  0  0  0
    3.6373   -9.5349   16.0582 N   0  0  0  0  0  0  0  0  0  0  0  0
    9.9275   -4.8001   18.0438 N   0  0  0  0  0  0  0  0  0  0  0  0
    8.5908   -5.7425   16.4412 C   0  0  0  0  0  0  0  0  0  0  0  0
   10.5993   -4.8981   21.6068 C   0  0  0  0  0  0  0  0  0  0  0  0
   10.4258   -3.0106   23.0998 C   0  0  0  0  0  0  0  0  0  0  0  0
   10.2148   -3.4364   25.4200 C   0  0  0  0  0  0  0  0  0  0  0  0
    9.7853   -1.1840   24.4927 C   0  0  0  0  0  0  0  0  0  0  0  0
    5.0276   -8.5227   17.5352 C   0  0  0  0  0  0  0  0  0  0  0  0
    9.8187   -2.0895   25.5800 C   0  0  0  0  0  0  0  0  0  0  0  0
    5.6473   -8.7216   15.3158 C   0  0  0  0  0  0  0  0  0  0  0  0
   10.7581   -3.1233   19.4720 N   0  0  0  0  0  0  0  0  0  0  0  0
    9.9571   -4.0573   16.8866 C   0  0  0  0  0  0  0  0  0  0  0  0
    7.6213   -6.5618   16.0087 C   0  0  0  0  0  0  0  0  0  0  0  0
   10.8583   -2.6527   20.7222 C   0  0  0  0  0  0  0  0  0  0  0  0
   10.6412   -3.5089   21.7936 C   0  0  0  0  0  0  0  0  0  0  0  0
   10.4972   -3.8968   24.1589 C   0  0  0  0  0  0  0  0  0  0  0  0
    5.9260   -8.2736   16.5517 C   0  0  0  0  0  0  0  0  0  0  0  0
    3.8816   -9.1166   17.2493 C   0  0  0  0  0  0  0  0  0  0  0  0
   10.1297   -1.6575   23.2324 C   0  0  0  0  0  0  0  0  0  0  0  0
    9.4684   -1.6929   26.7263 F   0  0  0  0  0  0  0  0  0  0  0  0
    7.7963   -7.7906   17.9837 C   0  0  0  0  0  0  0  0  0  0  0  0
   10.5884   -3.0725   16.7902 O   0  0  0  0  0  0  0  0  0  0  0  0
   10.4323   -5.3494   20.3516 C   0  0  0  0  0  0  0  0  0  0  0  0
    7.1156   -7.5454   16.8218 C   0  0  0  0  0  0  0  0  0  0  0  0
   10.3885   -4.4388   19.2773 C   0  0  0  0  0  0  0  0  0  0  0  0
    4.5160   -9.3822   15.0841 C   0  0  0  0  0  0  0  0  0  0  0  0
  1  3  4  0
  1 24  4  0
  2  6  4  0
  2 15  4  0
  3  5  4  0
  3  6  4  0
  4 21  4  0
  4 29  4  0
  5 15  4  0
  5 28  1  0
  6 16  4  0
  7 18  4  0
  7 26  4  0
  8 18  1  0
  8 19  4  0
  8 22  4  0
  9 12  4  0
  9 19  4  0
 10 12  4  0
 10 22  4  0
 11 20  4  0
 11 21  4  0
 12 23  1  0
 13 20  4  0
 13 29  4  0
 14 17  4  0
 14 28  4  0
 15 25  2  0
 16 27  4  0
 17 18  4  0
 20 27  1  0
 24 27  4  0
 26 28  4  0
M  END
$$$$

 Created by Python create_sdf_string function

 29 33  0  0  0  0  0  0  0  0999 V2000
    8.8270   -7.0288   18.4251 C   0  0  0  0  0  0  0  0  0  0  0  0
    9.1576   -4.6236   15.8860 O   0  0  0  0  0  0  0  0  0  0  0  0
    9.1509   -5.9108   17.7177 C   0  0  0  0  0  0  0  0  0  0  0  0
    3.6373   -9.5349   16.0582 N   0  0  0  0  0  0  0  0  0  0  0  0
    9.9275   -4.8001   18.0438 N   0  0  0  0  0  0  0  0  0  0  0  0
    8.5908   -5.7425   16.4412 C   0  0  0  0  0  0  0  0  0  0  0  0
   10.5993   -4.8981   21.6068 C   0  0  0  0  0  0  0  0  0  0  0  0
   10.4258   -3.0106   23.0998 C   0  0  0  0  0  0  0  0  0  0  0  0
   10.2148   -3.4364   25.4200 C   0  0  0  0  0  0  0  0  0  0  0  0
    9.7853   -1.1840   24.4927 C   0  0  0  0  0  0  0  0  0  0  0  0
    5.0276   -8.5227   17.5352 C   0  0  0  0  0  0  0  0  0  0  0  0
    9.8187   -2.0895   25.5800 C   0  0  0  0  0  0  0  0  0  0  0  0
    5.6473   -8.7216   15.3158 C   0  0  0  0  0  0  0  0  0  0  0  0
   10.7581   -3.1233   19.4720 N   0  0  0  0  0  0  0  0  0  0  0  0
    9.9571   -4.0573   16.8866 C   0  0  0  0  0  0  0  0  0  0  0  0
    7.6213   -6.5618   16.0087 C   0  0  0  0  0  0  0  0  0  0  0  0
   10.8583   -2.6527   20.7222 C   0  0  0  0  0  0  0  0  0  0  0  0
   10.6412   -3.5089   21.7936 C   0  0  0  0  0  0  0  0  0  0  0  0
   10.4972   -3.8968   24.1589 C   0  0  0  0  0  0  0  0  0  0  0  0
    5.9260   -8.2736   16.5517 C   0  0  0  0  0  0  0  0  0  0  0  0
    3.8816   -9.1166   17.2493 C   0  0  0  0  0  0  0  0  0  0  0  0
   10.1297   -1.6575   23.2324 C   0  0  0  0  0  0  0  0  0  0  0  0
    9.4684   -1.6929   26.7263 F   0  0  0  0  0  0  0  0  0  0  0  0
    7.7963   -7.7906   17.9837 C   0  0  0  0  0  0  0  0  0  0  0  0
   10.5884   -3.0725   16.7902 O   0  0  0  0  0  0  0  0  0  0  0  0
   10.4323   -5.3494   20.3516 C   0  0  0  0  0  0  0  0  0  0  0  0
    7.1156   -7.5454   16.8218 C   0  0  0  0  0  0  0  0  0  0  0  0
   10.3885   -4.4388   19.2773 C   0  0  0  0  0  0  0  0  0  0  0  0
    4.5160   -9.3822   15.0841 C   0  0  0  0  0  0  0  0  0  0  0  0
  1  3  4  0
  1 24  4  0
  2  6  4  0
  2 15  4  0
  3  5  4  0
  3  6  4  0
  4 21  4  0
  4 29  4  0
  5 15  4  0
  5 28  1  0
  6 16  4  0
  7 18  4  0
  7 26  4  0
  8 18  1  0
  8 19  4  0
  8 22  4  0
  9 12  4  0
  9 19  4  0
 10 12  4  0
 10 22  4  0
 11 20  4  0
 11 21  4  0
 12 23  1  0
 13 20  4  0
 13 29  4  0
 14 17  4  0
 14 28  4  0
 15 25  2  0
 16 27  4  0
 17 18  4  0
 20 27  1  0
 24 27  4  0
 26 28  4  0
M  END
$$$$

 Created by Python create_sdf_string function

 29 33  0  0  0  0  0  0  0  0999 V2000
    8.8270   -7.0288   18.4251 C   0  0  0  0  0  0  0  0  0  0  0  0
    9.1576   -4.6236   15.8860 O   0  0  0  0  0  0  0  0  0  0  0  0
    9.1509   -5.9108   17.7177 C   0  0  0  0  0  0  0  0  0  0  0  0
    3.6373   -9.5349   16.0582 N   0  0  0  0  0  0  0  0  0  0  0  0
    9.9275   -4.8001   18.0438 N   0  0  0  0  0  0  0  0  0  0  0  0
    8.5908   -5.7425   16.4412 C   0  0  0  0  0  0  0  0  0  0  0  0
   10.5993   -4.8981   21.6068 C   0  0  0  0  0  0  0  0  0  0  0  0
   10.4258   -3.0106   23.0998 C   0  0  0  0  0  0  0  0  0  0  0  0
   10.2148   -3.4364   25.4200 C   0  0  0  0  0  0  0  0  0  0  0  0
    9.7853   -1.1840   24.4927 C   0  0  0  0  0  0  0  0  0  0  0  0
    5.0276   -8.5227   17.5352 C   0  0  0  0  0  0  0  0  0  0  0  0
    9.8187   -2.0895   25.5800 C   0  0  0  0  0  0  0  0  0  0  0  0
    5.6473   -8.7216   15.3158 C   0  0  0  0  0  0  0  0  0  0  0  0
   10.7581   -3.1233   19.4720 N   0  0  0  0  0  0  0  0  0  0  0  0
    9.9571   -4.0573   16.8866 C   0  0  0  0  0  0  0  0  0  0  0  0
    7.6213   -6.5618   16.0087 C   0  0  0  0  0  0  0  0  0  0  0  0
   10.8583   -2.6527   20.7222 C   0  0  0  0  0  0  0  0  0  0  0  0
   10.6412   -3.5089   21.7936 C   0  0  0  0  0  0  0  0  0  0  0  0
   10.4972   -3.8968   24.1589 C   0  0  0  0  0  0  0  0  0  0  0  0
    5.9260   -8.2736   16.5517 C   0  0  0  0  0  0  0  0  0  0  0  0
    3.8816   -9.1166   17.2493 C   0  0  0  0  0  0  0  0  0  0  0  0
   10.1297   -1.6575   23.2324 C   0  0  0  0  0  0  0  0  0  0  0  0
    9.4684   -1.6929   26.7263 F   0  0  0  0  0  0  0  0  0  0  0  0
    7.7963   -7.7906   17.9837 C   0  0  0  0  0  0  0  0  0  0  0  0
   10.5884   -3.0725   16.7902 O   0  0  0  0  0  0  0  0  0  0  0  0
   10.4323   -5.3494   20.3516 C   0  0  0  0  0  0  0  0  0  0  0  0
    7.1156   -7.5454   16.8218 C   0  0  0  0  0  0  0  0  0  0  0  0
   10.3885   -4.4388   19.2773 C   0  0  0  0  0  0  0  0  0  0  0  0
    4.5160   -9.3822   15.0841 C   0  0  0  0  0  0  0  0  0  0  0  0
  1  3  4  0
  1 24  4  0
  2  6  4  0
  2 15  4  0
  3  5  4  0
  3  6  4  0
  4 21  4  0
  4 29  4  0
  5 15  4  0
  5 28  1  0
  6 16  4  0
  7 18  4  0
  7 26  4  0
  8 18  1  0
  8 19  4  0
  8 22  4  0
  9 12  4  0
  9 19  4  0
 10 12  4  0
 10 22  4  0
 11 20  4  0
 11 21  4  0
 12 23  1  0
 13 20  4  0
 13 29  4  0
 14 17  4  0
 14 28  4  0
 15 25  2  0
 16 27  4  0
 17 18  4  0
 20 27  1  0
 24 27  4  0
 26 28  4  0
M  END
$$$$

 Created by Python create_sdf_string function

 29 33  0  0  0  0  0  0  0  0999 V2000
    8.8270   -7.0288   18.4251 C   0  0  0  0  0  0  0  0  0  0  0  0
    9.1576   -4.6236   15.8860 O   0  0  0  0  0  0  0  0  0  0  0  0
    9.1509   -5.9108   17.7177 C   0  0  0  0  0  0  0  0  0  0  0  0
    3.6373   -9.5349   16.0582 N   0  0  0  0  0  0  0  0  0  0  0  0
    9.9275   -4.8001   18.0438 N   0  0  0  0  0  0  0  0  0  0  0  0
    8.5908   -5.7425   16.4412 C   0  0  0  0  0  0  0  0  0  0  0  0
   10.5993   -4.8981   21.6068 C   0  0  0  0  0  0  0  0  0  0  0  0
   10.4258   -3.0106   23.0998 C   0  0  0  0  0  0  0  0  0  0  0  0
   10.2148   -3.4364   25.4200 C   0  0  0  0  0  0  0  0  0  0  0  0
    9.7853   -1.1840   24.4927 C   0  0  0  0  0  0  0  0  0  0  0  0
    5.0276   -8.5227   17.5352 C   0  0  0  0  0  0  0  0  0  0  0  0
    9.8187   -2.0895   25.5800 C   0  0  0  0  0  0  0  0  0  0  0  0
    5.6473   -8.7216   15.3158 C   0  0  0  0  0  0  0  0  0  0  0  0
   10.7581   -3.1233   19.4720 N   0  0  0  0  0  0  0  0  0  0  0  0
    9.9571   -4.0573   16.8866 C   0  0  0  0  0  0  0  0  0  0  0  0
    7.6213   -6.5618   16.0087 C   0  0  0  0  0  0  0  0  0  0  0  0
   10.8583   -2.6527   20.7222 C   0  0  0  0  0  0  0  0  0  0  0  0
   10.6412   -3.5089   21.7936 C   0  0  0  0  0  0  0  0  0  0  0  0
   10.4972   -3.8968   24.1589 C   0  0  0  0  0  0  0  0  0  0  0  0
    5.9260   -8.2736   16.5517 C   0  0  0  0  0  0  0  0  0  0  0  0
    3.8816   -9.1166   17.2493 C   0  0  0  0  0  0  0  0  0  0  0  0
   10.1297   -1.6575   23.2324 C   0  0  0  0  0  0  0  0  0  0  0  0
    9.4684   -1.6929   26.7263 F   0  0  0  0  0  0  0  0  0  0  0  0
    7.7963   -7.7906   17.9837 C   0  0  0  0  0  0  0  0  0  0  0  0
   10.5884   -3.0725   16.7902 O   0  0  0  0  0  0  0  0  0  0  0  0
   10.4323   -5.3494   20.3516 C   0  0  0  0  0  0  0  0  0  0  0  0
    7.1156   -7.5454   16.8218 C   0  0  0  0  0  0  0  0  0  0  0  0
   10.3885   -4.4388   19.2773 C   0  0  0  0  0  0  0  0  0  0  0  0
    4.5160   -9.3822   15.0841 C   0  0  0  0  0  0  0  0  0  0  0  0
  1  3  4  0
  1 24  4  0
  2  6  4  0
  2 15  4  0
  3  5  4  0
  3  6  4  0
  4 21  4  0
  4 29  4  0
  5 15  4  0
  5 28  1  0
  6 16  4  0
  7 18  4  0
  7 26  4  0
  8 18  1  0
  8 19  4  0
  8 22  4  0
  9 12  4  0
  9 19  4  0
 10 12  4  0
 10 22  4  0
 11 20  4  0
 11 21  4  0
 12 23  1  0
 13 20  4  0
 13 29  4  0
 14 17  4  0
 14 28  4  0
 15 25  2  0
 16 27  4  0
 17 18  4  0
 20 27  1  0
 24 27  4  0
 26 28  4  0
M  END
$$$$

 Created by Python create_sdf_string function

 29 33  0  0  0  0  0  0  0  0999 V2000
    8.8270   -7.0288   18.4251 C   0  0  0  0  0  0  0  0  0  0  0  0
    9.1576   -4.6236   15.8860 O   0  0  0  0  0  0  0  0  0  0  0  0
    9.1509   -5.9108   17.7177 C   0  0  0  0  0  0  0  0  0  0  0  0
    3.6373   -9.5349   16.0582 N   0  0  0  0  0  0  0  0  0  0  0  0
    9.9275   -4.8001   18.0438 N   0  0  0  0  0  0  0  0  0  0  0  0
    8.5908   -5.7425   16.4412 C   0  0  0  0  0  0  0  0  0  0  0  0
   10.5993   -4.8981   21.6068 C   0  0  0  0  0  0  0  0  0  0  0  0
   10.4258   -3.0106   23.0998 C   0  0  0  0  0  0  0  0  0  0  0  0
   10.2148   -3.4364   25.4200 C   0  0  0  0  0  0  0  0  0  0  0  0
    9.7853   -1.1840   24.4927 C   0  0  0  0  0  0  0  0  0  0  0  0
    5.0276   -8.5227   17.5352 C   0  0  0  0  0  0  0  0  0  0  0  0
    9.8187   -2.0895   25.5800 C   0  0  0  0  0  0  0  0  0  0  0  0
    5.6473   -8.7216   15.3158 C   0  0  0  0  0  0  0  0  0  0  0  0
   10.7581   -3.1233   19.4720 N   0  0  0  0  0  0  0  0  0  0  0  0
    9.9571   -4.0573   16.8866 C   0  0  0  0  0  0  0  0  0  0  0  0
    7.6213   -6.5618   16.0087 C   0  0  0  0  0  0  0  0  0  0  0  0
   10.8583   -2.6527   20.7222 C   0  0  0  0  0  0  0  0  0  0  0  0
   10.6412   -3.5089   21.7936 C   0  0  0  0  0  0  0  0  0  0  0  0
   10.4972   -3.8968   24.1589 C   0  0  0  0  0  0  0  0  0  0  0  0
    5.9260   -8.2736   16.5517 C   0  0  0  0  0  0  0  0  0  0  0  0
    3.8816   -9.1166   17.2493 C   0  0  0  0  0  0  0  0  0  0  0  0
   10.1297   -1.6575   23.2324 C   0  0  0  0  0  0  0  0  0  0  0  0
    9.4684   -1.6929   26.7263 F   0  0  0  0  0  0  0  0  0  0  0  0
    7.7963   -7.7906   17.9837 C   0  0  0  0  0  0  0  0  0  0  0  0
   10.5884   -3.0725   16.7902 O   0  0  0  0  0  0  0  0  0  0  0  0
   10.4323   -5.3494   20.3516 C   0  0  0  0  0  0  0  0  0  0  0  0
    7.1156   -7.5454   16.8218 C   0  0  0  0  0  0  0  0  0  0  0  0
   10.3885   -4.4388   19.2773 C   0  0  0  0  0  0  0  0  0  0  0  0
    4.5160   -9.3822   15.0841 C   0  0  0  0  0  0  0  0  0  0  0  0
  1  3  4  0
  1 24  4  0
  2  6  4  0
  2 15  4  0
  3  5  4  0
  3  6  4  0
  4 21  4  0
  4 29  4  0
  5 15  4  0
  5 28  1  0
  6 16  4  0
  7 18  4  0
  7 26  4  0
  8 18  1  0
  8 19  4  0
  8 22  4  0
  9 12  4  0
  9 19  4  0
 10 12  4  0
 10 22  4  0
 11 20  4  0
 11 21  4  0
 12 23  1  0
 13 20  4  0
 13 29  4  0
 14 17  4  0
 14 28  4  0
 15 25  2  0
 16 27  4  0
 17 18  4  0
 20 27  1  0
 24 27  4  0
 26 28  4  0
M  END
$$$$

 Created by Python create_sdf_string function

 29 33  0  0  0  0  0  0  0  0999 V2000
    8.8270   -7.0288   18.4251 C   0  0  0  0  0  0  0  0  0  0  0  0
    9.1576   -4.6236   15.8860 O   0  0  0  0  0  0  0  0  0  0  0  0
    9.1509   -5.9108   17.7177 C   0  0  0  0  0  0  0  0  0  0  0  0
    3.6373   -9.5349   16.0582 N   0  0  0  0  0  0  0  0  0  0  0  0
    9.9275   -4.8001   18.0438 N   0  0  0  0  0  0  0  0  0  0  0  0
    8.5908   -5.7425   16.4412 C   0  0  0  0  0  0  0  0  0  0  0  0
   10.5993   -4.8981   21.6068 C   0  0  0  0  0  0  0  0  0  0  0  0
   10.4258   -3.0106   23.0998 C   0  0  0  0  0  0  0  0  0  0  0  0
   10.2148   -3.4364   25.4200 C   0  0  0  0  0  0  0  0  0  0  0  0
    9.7853   -1.1840   24.4927 C   0  0  0  0  0  0  0  0  0  0  0  0
    5.0276   -8.5227   17.5352 C   0  0  0  0  0  0  0  0  0  0  0  0
    9.8187   -2.0895   25.5800 C   0  0  0  0  0  0  0  0  0  0  0  0
    5.6473   -8.7216   15.3158 C   0  0  0  0  0  0  0  0  0  0  0  0
   10.7581   -3.1233   19.4720 N   0  0  0  0  0  0  0  0  0  0  0  0
    9.9571   -4.0573   16.8866 C   0  0  0  0  0  0  0  0  0  0  0  0
    7.6213   -6.5618   16.0087 C   0  0  0  0  0  0  0  0  0  0  0  0
   10.8583   -2.6527   20.7222 C   0  0  0  0  0  0  0  0  0  0  0  0
   10.6412   -3.5089   21.7936 C   0  0  0  0  0  0  0  0  0  0  0  0
   10.4972   -3.8968   24.1589 C   0  0  0  0  0  0  0  0  0  0  0  0
    5.9260   -8.2736   16.5517 C   0  0  0  0  0  0  0  0  0  0  0  0
    3.8816   -9.1166   17.2493 C   0  0  0  0  0  0  0  0  0  0  0  0
   10.1297   -1.6575   23.2324 C   0  0  0  0  0  0  0  0  0  0  0  0
    9.4684   -1.6929   26.7263 F   0  0  0  0  0  0  0  0  0  0  0  0
    7.7963   -7.7906   17.9837 C   0  0  0  0  0  0  0  0  0  0  0  0
   10.5884   -3.0725   16.7902 O   0  0  0  0  0  0  0  0  0  0  0  0
   10.4323   -5.3494   20.3516 C   0  0  0  0  0  0  0  0  0  0  0  0
    7.1156   -7.5454   16.8218 C   0  0  0  0  0  0  0  0  0  0  0  0
   10.3885   -4.4388   19.2773 C   0  0  0  0  0  0  0  0  0  0  0  0
    4.5160   -9.3822   15.0841 C   0  0  0  0  0  0  0  0  0  0  0  0
  1  3  4  0
  1 24  4  0
  2  6  4  0
  2 15  4  0
  3  5  4  0
  3  6  4  0
  4 21  4  0
  4 29  4  0
  5 15  4  0
  5 28  1  0
  6 16  4  0
  7 18  4  0
  7 26  4  0
  8 18  1  0
  8 19  4  0
  8 22  4  0
  9 12  4  0
  9 19  4  0
 10 12  4  0
 10 22  4  0
 11 20  4  0
 11 21  4  0
 12 23  1  0
 13 20  4  0
 13 29  4  0
 14 17  4  0
 14 28  4  0
 15 25  2  0
 16 27  4  0
 17 18  4  0
 20 27  1  0
 24 27  4  0
 26 28  4  0
M  END
$$$$

 Created by Python create_sdf_string function

 29 33  0  0  0  0  0  0  0  0999 V2000
    8.8270   -7.0288   18.4251 C   0  0  0  0  0  0  0  0  0  0  0  0
    9.1576   -4.6236   15.8860 O   0  0  0  0  0  0  0  0  0  0  0  0
    9.1509   -5.9108   17.7177 C   0  0  0  0  0  0  0  0  0  0  0  0
    3.6373   -9.5349   16.0582 N   0  0  0  0  0  0  0  0  0  0  0  0
    9.9275   -4.8001   18.0438 N   0  0  0  0  0  0  0  0  0  0  0  0
    8.5908   -5.7425   16.4412 C   0  0  0  0  0  0  0  0  0  0  0  0
   10.5993   -4.8981   21.6068 C   0  0  0  0  0  0  0  0  0  0  0  0
   10.4258   -3.0106   23.0998 C   0  0  0  0  0  0  0  0  0  0  0  0
   10.2148   -3.4364   25.4200 C   0  0  0  0  0  0  0  0  0  0  0  0
    9.7853   -1.1840   24.4927 C   0  0  0  0  0  0  0  0  0  0  0  0
    5.0276   -8.5227   17.5352 C   0  0  0  0  0  0  0  0  0  0  0  0
    9.8187   -2.0895   25.5800 C   0  0  0  0  0  0  0  0  0  0  0  0
    5.6473   -8.7216   15.3158 C   0  0  0  0  0  0  0  0  0  0  0  0
   10.7581   -3.1233   19.4720 N   0  0  0  0  0  0  0  0  0  0  0  0
    9.9571   -4.0573   16.8866 C   0  0  0  0  0  0  0  0  0  0  0  0
    7.6213   -6.5618   16.0087 C   0  0  0  0  0  0  0  0  0  0  0  0
   10.8583   -2.6527   20.7222 C   0  0  0  0  0  0  0  0  0  0  0  0
   10.6412   -3.5089   21.7936 C   0  0  0  0  0  0  0  0  0  0  0  0
   10.4972   -3.8968   24.1589 C   0  0  0  0  0  0  0  0  0  0  0  0
    5.9260   -8.2736   16.5517 C   0  0  0  0  0  0  0  0  0  0  0  0
    3.8816   -9.1166   17.2493 C   0  0  0  0  0  0  0  0  0  0  0  0
   10.1297   -1.6575   23.2324 C   0  0  0  0  0  0  0  0  0  0  0  0
    9.4684   -1.6929   26.7263 F   0  0  0  0  0  0  0  0  0  0  0  0
    7.7963   -7.7906   17.9837 C   0  0  0  0  0  0  0  0  0  0  0  0
   10.5884   -3.0725   16.7902 O   0  0  0  0  0  0  0  0  0  0  0  0
   10.4323   -5.3494   20.3516 C   0  0  0  0  0  0  0  0  0  0  0  0
    7.1156   -7.5454   16.8218 C   0  0  0  0  0  0  0  0  0  0  0  0
   10.3885   -4.4388   19.2773 C   0  0  0  0  0  0  0  0  0  0  0  0
    4.5160   -9.3822   15.0841 C   0  0  0  0  0  0  0  0  0  0  0  0
  1  3  4  0
  1 24  4  0
  2  6  4  0
  2 15  4  0
  3  5  4  0
  3  6  4  0
  4 21  4  0
  4 29  4  0
  5 15  4  0
  5 28  1  0
  6 16  4  0
  7 18  4  0
  7 26  4  0
  8 18  1  0
  8 19  4  0
  8 22  4  0
  9 12  4  0
  9 19  4  0
 10 12  4  0
 10 22  4  0
 11 20  4  0
 11 21  4  0
 12 23  1  0
 13 20  4  0
 13 29  4  0
 14 17  4  0
 14 28  4  0
 15 25  2  0
 16 27  4  0
 17 18  4  0
 20 27  1  0
 24 27  4  0
 26 28  4  0
M  END
$$$$

 Created by Python create_sdf_string function

 29 33  0  0  0  0  0  0  0  0999 V2000
    8.8270   -7.0288   18.4251 C   0  0  0  0  0  0  0  0  0  0  0  0
    9.1576   -4.6236   15.8860 O   0  0  0  0  0  0  0  0  0  0  0  0
    9.1509   -5.9108   17.7177 C   0  0  0  0  0  0  0  0  0  0  0  0
    3.6373   -9.5349   16.0582 N   0  0  0  0  0  0  0  0  0  0  0  0
    9.9275   -4.8001   18.0438 N   0  0  0  0  0  0  0  0  0  0  0  0
    8.5908   -5.7425   16.4412 C   0  0  0  0  0  0  0  0  0  0  0  0
   10.5993   -4.8981   21.6068 C   0  0  0  0  0  0  0  0  0  0  0  0
   10.4258   -3.0106   23.0998 C   0  0  0  0  0  0  0  0  0  0  0  0
   10.2148   -3.4364   25.4200 C   0  0  0  0  0  0  0  0  0  0  0  0
    9.7853   -1.1840   24.4927 C   0  0  0  0  0  0  0  0  0  0  0  0
    5.0276   -8.5227   17.5352 C   0  0  0  0  0  0  0  0  0  0  0  0
    9.8187   -2.0895   25.5800 C   0  0  0  0  0  0  0  0  0  0  0  0
    5.6473   -8.7216   15.3158 C   0  0  0  0  0  0  0  0  0  0  0  0
   10.7581   -3.1233   19.4720 N   0  0  0  0  0  0  0  0  0  0  0  0
    9.9571   -4.0573   16.8866 C   0  0  0  0  0  0  0  0  0  0  0  0
    7.6213   -6.5618   16.0087 C   0  0  0  0  0  0  0  0  0  0  0  0
   10.8583   -2.6527   20.7222 C   0  0  0  0  0  0  0  0  0  0  0  0
   10.6412   -3.5089   21.7936 C   0  0  0  0  0  0  0  0  0  0  0  0
   10.4972   -3.8968   24.1589 C   0  0  0  0  0  0  0  0  0  0  0  0
    5.9260   -8.2736   16.5517 C   0  0  0  0  0  0  0  0  0  0  0  0
    3.8816   -9.1166   17.2493 C   0  0  0  0  0  0  0  0  0  0  0  0
   10.1297   -1.6575   23.2324 C   0  0  0  0  0  0  0  0  0  0  0  0
    9.4684   -1.6929   26.7263 F   0  0  0  0  0  0  0  0  0  0  0  0
    7.7963   -7.7906   17.9837 C   0  0  0  0  0  0  0  0  0  0  0  0
   10.5884   -3.0725   16.7902 O   0  0  0  0  0  0  0  0  0  0  0  0
   10.4323   -5.3494   20.3516 C   0  0  0  0  0  0  0  0  0  0  0  0
    7.1156   -7.5454   16.8218 C   0  0  0  0  0  0  0  0  0  0  0  0
   10.3885   -4.4388   19.2773 C   0  0  0  0  0  0  0  0  0  0  0  0
    4.5160   -9.3822   15.0841 C   0  0  0  0  0  0  0  0  0  0  0  0
  1  3  4  0
  1 24  4  0
  2  6  4  0
  2 15  4  0
  3  5  4  0
  3  6  4  0
  4 21  4  0
  4 29  4  0
  5 15  4  0
  5 28  1  0
  6 16  4  0
  7 18  4  0
  7 26  4  0
  8 18  1  0
  8 19  4  0
  8 22  4  0
  9 12  4  0
  9 19  4  0
 10 12  4  0
 10 22  4  0
 11 20  4  0
 11 21  4  0
 12 23  1  0
 13 20  4  0
 13 29  4  0
 14 17  4  0
 14 28  4  0
 15 25  2  0
 16 27  4  0
 17 18  4  0
 20 27  1  0
 24 27  4  0
 26 28  4  0
M  END
$$$$

 Created by Python create_sdf_string function

 29 33  0  0  0  0  0  0  0  0999 V2000
    8.8270   -7.0288   18.4251 C   0  0  0  0  0  0  0  0  0  0  0  0
    9.1576   -4.6236   15.8860 O   0  0  0  0  0  0  0  0  0  0  0  0
    9.1509   -5.9108   17.7177 C   0  0  0  0  0  0  0  0  0  0  0  0
    3.6373   -9.5349   16.0582 N   0  0  0  0  0  0  0  0  0  0  0  0
    9.9275   -4.8001   18.0438 N   0  0  0  0  0  0  0  0  0  0  0  0
    8.5908   -5.7425   16.4412 C   0  0  0  0  0  0  0  0  0  0  0  0
   10.5993   -4.8981   21.6068 C   0  0  0  0  0  0  0  0  0  0  0  0
   10.4258   -3.0106   23.0998 C   0  0  0  0  0  0  0  0  0  0  0  0
   10.2148   -3.4364   25.4200 C   0  0  0  0  0  0  0  0  0  0  0  0
    9.7853   -1.1840   24.4927 C   0  0  0  0  0  0  0  0  0  0  0  0
    5.0276   -8.5227   17.5352 C   0  0  0  0  0  0  0  0  0  0  0  0
    9.8187   -2.0895   25.5800 C   0  0  0  0  0  0  0  0  0  0  0  0
    5.6473   -8.7216   15.3158 C   0  0  0  0  0  0  0  0  0  0  0  0
   10.7581   -3.1233   19.4720 N   0  0  0  0  0  0  0  0  0  0  0  0
    9.9571   -4.0573   16.8866 C   0  0  0  0  0  0  0  0  0  0  0  0
    7.6213   -6.5618   16.0087 C   0  0  0  0  0  0  0  0  0  0  0  0
   10.8583   -2.6527   20.7222 C   0  0  0  0  0  0  0  0  0  0  0  0
   10.6412   -3.5089   21.7936 C   0  0  0  0  0  0  0  0  0  0  0  0
   10.4972   -3.8968   24.1589 C   0  0  0  0  0  0  0  0  0  0  0  0
    5.9260   -8.2736   16.5517 C   0  0  0  0  0  0  0  0  0  0  0  0
    3.8816   -9.1166   17.2493 C   0  0  0  0  0  0  0  0  0  0  0  0
   10.1297   -1.6575   23.2324 C   0  0  0  0  0  0  0  0  0  0  0  0
    9.4684   -1.6929   26.7263 F   0  0  0  0  0  0  0  0  0  0  0  0
    7.7963   -7.7906   17.9837 C   0  0  0  0  0  0  0  0  0  0  0  0
   10.5884   -3.0725   16.7902 O   0  0  0  0  0  0  0  0  0  0  0  0
   10.4323   -5.3494   20.3516 C   0  0  0  0  0  0  0  0  0  0  0  0
    7.1156   -7.5454   16.8218 C   0  0  0  0  0  0  0  0  0  0  0  0
   10.3885   -4.4388   19.2773 C   0  0  0  0  0  0  0  0  0  0  0  0
    4.5160   -9.3822   15.0841 C   0  0  0  0  0  0  0  0  0  0  0  0
  1  3  4  0
  1 24  4  0
  2  6  4  0
  2 15  4  0
  3  5  4  0
  3  6  4  0
  4 21  4  0
  4 29  4  0
  5 15  4  0
  5 28  1  0
  6 16  4  0
  7 18  4  0
  7 26  4  0
  8 18  1  0
  8 19  4  0
  8 22  4  0
  9 12  4  0
  9 19  4  0
 10 12  4  0
 10 22  4  0
 11 20  4  0
 11 21  4  0
 12 23  1  0
 13 20  4  0
 13 29  4  0
 14 17  4  0
 14 28  4  0
 15 25  2  0
 16 27  4  0
 17 18  4  0
 20 27  1  0
 24 27  4  0
 26 28  4  0
M  END
$$$$

 Created by Python create_sdf_string function

 29 33  0  0  0  0  0  0  0  0999 V2000
    8.8270   -7.0288   18.4251 C   0  0  0  0  0  0  0  0  0  0  0  0
    9.1576   -4.6236   15.8860 O   0  0  0  0  0  0  0  0  0  0  0  0
    9.1509   -5.9108   17.7177 C   0  0  0  0  0  0  0  0  0  0  0  0
    3.6373   -9.5349   16.0582 N   0  0  0  0  0  0  0  0  0  0  0  0
    9.9275   -4.8001   18.0438 N   0  0  0  0  0  0  0  0  0  0  0  0
    8.5908   -5.7425   16.4412 C   0  0  0  0  0  0  0  0  0  0  0  0
   10.5993   -4.8981   21.6068 C   0  0  0  0  0  0  0  0  0  0  0  0
   10.4258   -3.0106   23.0998 C   0  0  0  0  0  0  0  0  0  0  0  0
   10.2148   -3.4364   25.4200 C   0  0  0  0  0  0  0  0  0  0  0  0
    9.7853   -1.1840   24.4927 C   0  0  0  0  0  0  0  0  0  0  0  0
    5.0276   -8.5227   17.5352 C   0  0  0  0  0  0  0  0  0  0  0  0
    9.8187   -2.0895   25.5800 C   0  0  0  0  0  0  0  0  0  0  0  0
    5.6473   -8.7216   15.3158 C   0  0  0  0  0  0  0  0  0  0  0  0
   10.7581   -3.1233   19.4720 N   0  0  0  0  0  0  0  0  0  0  0  0
    9.9571   -4.0573   16.8866 C   0  0  0  0  0  0  0  0  0  0  0  0
    7.6213   -6.5618   16.0087 C   0  0  0  0  0  0  0  0  0  0  0  0
   10.8583   -2.6527   20.7222 C   0  0  0  0  0  0  0  0  0  0  0  0
   10.6412   -3.5089   21.7936 C   0  0  0  0  0  0  0  0  0  0  0  0
   10.4972   -3.8968   24.1589 C   0  0  0  0  0  0  0  0  0  0  0  0
    5.9260   -8.2736   16.5517 C   0  0  0  0  0  0  0  0  0  0  0  0
    3.8816   -9.1166   17.2493 C   0  0  0  0  0  0  0  0  0  0  0  0
   10.1297   -1.6575   23.2324 C   0  0  0  0  0  0  0  0  0  0  0  0
    9.4684   -1.6929   26.7263 F   0  0  0  0  0  0  0  0  0  0  0  0
    7.7963   -7.7906   17.9837 C   0  0  0  0  0  0  0  0  0  0  0  0
   10.5884   -3.0725   16.7902 O   0  0  0  0  0  0  0  0  0  0  0  0
   10.4323   -5.3494   20.3516 C   0  0  0  0  0  0  0  0  0  0  0  0
    7.1156   -7.5454   16.8218 C   0  0  0  0  0  0  0  0  0  0  0  0
   10.3885   -4.4388   19.2773 C   0  0  0  0  0  0  0  0  0  0  0  0
    4.5160   -9.3822   15.0841 C   0  0  0  0  0  0  0  0  0  0  0  0
  1  3  4  0
  1 24  4  0
  2  6  4  0
  2 15  4  0
  3  5  4  0
  3  6  4  0
  4 21  4  0
  4 29  4  0
  5 15  4  0
  5 28  1  0
  6 16  4  0
  7 18  4  0
  7 26  4  0
  8 18  1  0
  8 19  4  0
  8 22  4  0
  9 12  4  0
  9 19  4  0
 10 12  4  0
 10 22  4  0
 11 20  4  0
 11 21  4  0
 12 23  1  0
 13 20  4  0
 13 29  4  0
 14 17  4  0
 14 28  4  0
 15 25  2  0
 16 27  4  0
 17 18  4  0
 20 27  1  0
 24 27  4  0
 26 28  4  0
M  END
$$$$

 Created by Python create_sdf_string function

 29 33  0  0  0  0  0  0  0  0999 V2000
    8.8270   -7.0288   18.4251 C   0  0  0  0  0  0  0  0  0  0  0  0
    9.1576   -4.6236   15.8860 O   0  0  0  0  0  0  0  0  0  0  0  0
    9.1509   -5.9108   17.7177 C   0  0  0  0  0  0  0  0  0  0  0  0
    3.6373   -9.5349   16.0582 N   0  0  0  0  0  0  0  0  0  0  0  0
    9.9275   -4.8001   18.0438 N   0  0  0  0  0  0  0  0  0  0  0  0
    8.5908   -5.7425   16.4412 C   0  0  0  0  0  0  0  0  0  0  0  0
   10.5993   -4.8981   21.6068 C   0  0  0  0  0  0  0  0  0  0  0  0
   10.4258   -3.0106   23.0998 C   0  0  0  0  0  0  0  0  0  0  0  0
   10.2148   -3.4364   25.4200 C   0  0  0  0  0  0  0  0  0  0  0  0
    9.7853   -1.1840   24.4927 C   0  0  0  0  0  0  0  0  0  0  0  0
    5.0276   -8.5227   17.5352 C   0  0  0  0  0  0  0  0  0  0  0  0
    9.8187   -2.0895   25.5800 C   0  0  0  0  0  0  0  0  0  0  0  0
    5.6473   -8.7216   15.3158 C   0  0  0  0  0  0  0  0  0  0  0  0
   10.7581   -3.1233   19.4720 N   0  0  0  0  0  0  0  0  0  0  0  0
    9.9571   -4.0573   16.8866 C   0  0  0  0  0  0  0  0  0  0  0  0
    7.6213   -6.5618   16.0087 C   0  0  0  0  0  0  0  0  0  0  0  0
   10.8583   -2.6527   20.7222 C   0  0  0  0  0  0  0  0  0  0  0  0
   10.6412   -3.5089   21.7936 C   0  0  0  0  0  0  0  0  0  0  0  0
   10.4972   -3.8968   24.1589 C   0  0  0  0  0  0  0  0  0  0  0  0
    5.9260   -8.2736   16.5517 C   0  0  0  0  0  0  0  0  0  0  0  0
    3.8816   -9.1166   17.2493 C   0  0  0  0  0  0  0  0  0  0  0  0
   10.1297   -1.6575   23.2324 C   0  0  0  0  0  0  0  0  0  0  0  0
    9.4684   -1.6929   26.7263 F   0  0  0  0  0  0  0  0  0  0  0  0
    7.7963   -7.7906   17.9837 C   0  0  0  0  0  0  0  0  0  0  0  0
   10.5884   -3.0725   16.7902 O   0  0  0  0  0  0  0  0  0  0  0  0
   10.4323   -5.3494   20.3516 C   0  0  0  0  0  0  0  0  0  0  0  0
    7.1156   -7.5454   16.8218 C   0  0  0  0  0  0  0  0  0  0  0  0
   10.3885   -4.4388   19.2773 C   0  0  0  0  0  0  0  0  0  0  0  0
    4.5160   -9.3822   15.0841 C   0  0  0  0  0  0  0  0  0  0  0  0
  1  3  4  0
  1 24  4  0
  2  6  4  0
  2 15  4  0
  3  5  4  0
  3  6  4  0
  4 21  4  0
  4 29  4  0
  5 15  4  0
  5 28  1  0
  6 16  4  0
  7 18  4  0
  7 26  4  0
  8 18  1  0
  8 19  4  0
  8 22  4  0
  9 12  4  0
  9 19  4  0
 10 12  4  0
 10 22  4  0
 11 20  4  0
 11 21  4  0
 12 23  1  0
 13 20  4  0
 13 29  4  0
 14 17  4  0
 14 28  4  0
 15 25  2  0
 16 27  4  0
 17 18  4  0
 20 27  1  0
 24 27  4  0
 26 28  4  0
M  END
$$$$

 Created by Python create_sdf_string function

 29 33  0  0  0  0  0  0  0  0999 V2000
    8.8270   -7.0288   18.4251 C   0  0  0  0  0  0  0  0  0  0  0  0
    9.1576   -4.6236   15.8860 O   0  0  0  0  0  0  0  0  0  0  0  0
    9.1509   -5.9108   17.7177 C   0  0  0  0  0  0  0  0  0  0  0  0
    3.6373   -9.5349   16.0582 N   0  0  0  0  0  0  0  0  0  0  0  0
    9.9275   -4.8001   18.0438 N   0  0  0  0  0  0  0  0  0  0  0  0
    8.5908   -5.7425   16.4412 C   0  0  0  0  0  0  0  0  0  0  0  0
   10.5993   -4.8981   21.6068 C   0  0  0  0  0  0  0  0  0  0  0  0
   10.4258   -3.0106   23.0998 C   0  0  0  0  0  0  0  0  0  0  0  0
   10.2148   -3.4364   25.4200 C   0  0  0  0  0  0  0  0  0  0  0  0
    9.7853   -1.1840   24.4927 C   0  0  0  0  0  0  0  0  0  0  0  0
    5.0276   -8.5227   17.5352 C   0  0  0  0  0  0  0  0  0  0  0  0
    9.8187   -2.0895   25.5800 C   0  0  0  0  0  0  0  0  0  0  0  0
    5.6473   -8.7216   15.3158 C   0  0  0  0  0  0  0  0  0  0  0  0
   10.7581   -3.1233   19.4720 N   0  0  0  0  0  0  0  0  0  0  0  0
    9.9571   -4.0573   16.8866 C   0  0  0  0  0  0  0  0  0  0  0  0
    7.6213   -6.5618   16.0087 C   0  0  0  0  0  0  0  0  0  0  0  0
   10.8583   -2.6527   20.7222 C   0  0  0  0  0  0  0  0  0  0  0  0
   10.6412   -3.5089   21.7936 C   0  0  0  0  0  0  0  0  0  0  0  0
   10.4972   -3.8968   24.1589 C   0  0  0  0  0  0  0  0  0  0  0  0
    5.9260   -8.2736   16.5517 C   0  0  0  0  0  0  0  0  0  0  0  0
    3.8816   -9.1166   17.2493 C   0  0  0  0  0  0  0  0  0  0  0  0
   10.1297   -1.6575   23.2324 C   0  0  0  0  0  0  0  0  0  0  0  0
    9.4684   -1.6929   26.7263 F   0  0  0  0  0  0  0  0  0  0  0  0
    7.7963   -7.7906   17.9837 C   0  0  0  0  0  0  0  0  0  0  0  0
   10.5884   -3.0725   16.7902 O   0  0  0  0  0  0  0  0  0  0  0  0
   10.4323   -5.3494   20.3516 C   0  0  0  0  0  0  0  0  0  0  0  0
    7.1156   -7.5454   16.8218 C   0  0  0  0  0  0  0  0  0  0  0  0
   10.3885   -4.4388   19.2773 C   0  0  0  0  0  0  0  0  0  0  0  0
    4.5160   -9.3822   15.0841 C   0  0  0  0  0  0  0  0  0  0  0  0
  1  3  4  0
  1 24  4  0
  2  6  4  0
  2 15  4  0
  3  5  4  0
  3  6  4  0
  4 21  4  0
  4 29  4  0
  5 15  4  0
  5 28  1  0
  6 16  4  0
  7 18  4  0
  7 26  4  0
  8 18  1  0
  8 19  4  0
  8 22  4  0
  9 12  4  0
  9 19  4  0
 10 12  4  0
 10 22  4  0
 11 20  4  0
 11 21  4  0
 12 23  1  0
 13 20  4  0
 13 29  4  0
 14 17  4  0
 14 28  4  0
 15 25  2  0
 16 27  4  0
 17 18  4  0
 20 27  1  0
 24 27  4  0
 26 28  4  0
M  END
$$$$

 Created by Python create_sdf_string function

 29 33  0  0  0  0  0  0  0  0999 V2000
    8.8270   -7.0288   18.4251 C   0  0  0  0  0  0  0  0  0  0  0  0
    9.1576   -4.6236   15.8860 O   0  0  0  0  0  0  0  0  0  0  0  0
    9.1509   -5.9108   17.7177 C   0  0  0  0  0  0  0  0  0  0  0  0
    3.6373   -9.5349   16.0582 N   0  0  0  0  0  0  0  0  0  0  0  0
    9.9275   -4.8001   18.0438 N   0  0  0  0  0  0  0  0  0  0  0  0
    8.5908   -5.7425   16.4412 C   0  0  0  0  0  0  0  0  0  0  0  0
   10.5993   -4.8981   21.6068 C   0  0  0  0  0  0  0  0  0  0  0  0
   10.4258   -3.0106   23.0998 C   0  0  0  0  0  0  0  0  0  0  0  0
   10.2148   -3.4364   25.4200 C   0  0  0  0  0  0  0  0  0  0  0  0
    9.7853   -1.1840   24.4927 C   0  0  0  0  0  0  0  0  0  0  0  0
    5.0276   -8.5227   17.5352 C   0  0  0  0  0  0  0  0  0  0  0  0
    9.8187   -2.0895   25.5800 C   0  0  0  0  0  0  0  0  0  0  0  0
    5.6473   -8.7216   15.3158 C   0  0  0  0  0  0  0  0  0  0  0  0
   10.7581   -3.1233   19.4720 N   0  0  0  0  0  0  0  0  0  0  0  0
    9.9571   -4.0573   16.8866 C   0  0  0  0  0  0  0  0  0  0  0  0
    7.6213   -6.5618   16.0087 C   0  0  0  0  0  0  0  0  0  0  0  0
   10.8583   -2.6527   20.7222 C   0  0  0  0  0  0  0  0  0  0  0  0
   10.6412   -3.5089   21.7936 C   0  0  0  0  0  0  0  0  0  0  0  0
   10.4972   -3.8968   24.1589 C   0  0  0  0  0  0  0  0  0  0  0  0
    5.9260   -8.2736   16.5517 C   0  0  0  0  0  0  0  0  0  0  0  0
    3.8816   -9.1166   17.2493 C   0  0  0  0  0  0  0  0  0  0  0  0
   10.1297   -1.6575   23.2324 C   0  0  0  0  0  0  0  0  0  0  0  0
    9.4684   -1.6929   26.7263 F   0  0  0  0  0  0  0  0  0  0  0  0
    7.7963   -7.7906   17.9837 C   0  0  0  0  0  0  0  0  0  0  0  0
   10.5884   -3.0725   16.7902 O   0  0  0  0  0  0  0  0  0  0  0  0
   10.4323   -5.3494   20.3516 C   0  0  0  0  0  0  0  0  0  0  0  0
    7.1156   -7.5454   16.8218 C   0  0  0  0  0  0  0  0  0  0  0  0
   10.3885   -4.4388   19.2773 C   0  0  0  0  0  0  0  0  0  0  0  0
    4.5160   -9.3822   15.0841 C   0  0  0  0  0  0  0  0  0  0  0  0
  1  3  4  0
  1 24  4  0
  2  6  4  0
  2 15  4  0
  3  5  4  0
  3  6  4  0
  4 21  4  0
  4 29  4  0
  5 15  4  0
  5 28  1  0
  6 16  4  0
  7 18  4  0
  7 26  4  0
  8 18  1  0
  8 19  4  0
  8 22  4  0
  9 12  4  0
  9 19  4  0
 10 12  4  0
 10 22  4  0
 11 20  4  0
 11 21  4  0
 12 23  1  0
 13 20  4  0
 13 29  4  0
 14 17  4  0
 14 28  4  0
 15 25  2  0
 16 27  4  0
 17 18  4  0
 20 27  1  0
 24 27  4  0
 26 28  4  0
M  END
$$$$

 Created by Python create_sdf_string function

 29 33  0  0  0  0  0  0  0  0999 V2000
    8.8270   -7.0288   18.4251 C   0  0  0  0  0  0  0  0  0  0  0  0
    9.1576   -4.6236   15.8860 O   0  0  0  0  0  0  0  0  0  0  0  0
    9.1509   -5.9108   17.7177 C   0  0  0  0  0  0  0  0  0  0  0  0
    3.6373   -9.5349   16.0582 N   0  0  0  0  0  0  0  0  0  0  0  0
    9.9275   -4.8001   18.0438 N   0  0  0  0  0  0  0  0  0  0  0  0
    8.5908   -5.7425   16.4412 C   0  0  0  0  0  0  0  0  0  0  0  0
   10.5993   -4.8981   21.6068 C   0  0  0  0  0  0  0  0  0  0  0  0
   10.4258   -3.0106   23.0998 C   0  0  0  0  0  0  0  0  0  0  0  0
   10.2148   -3.4364   25.4200 C   0  0  0  0  0  0  0  0  0  0  0  0
    9.7853   -1.1840   24.4927 C   0  0  0  0  0  0  0  0  0  0  0  0
    5.0276   -8.5227   17.5352 C   0  0  0  0  0  0  0  0  0  0  0  0
    9.8187   -2.0895   25.5800 C   0  0  0  0  0  0  0  0  0  0  0  0
    5.6473   -8.7216   15.3158 C   0  0  0  0  0  0  0  0  0  0  0  0
   10.7581   -3.1233   19.4720 N   0  0  0  0  0  0  0  0  0  0  0  0
    9.9571   -4.0573   16.8866 C   0  0  0  0  0  0  0  0  0  0  0  0
    7.6213   -6.5618   16.0087 C   0  0  0  0  0  0  0  0  0  0  0  0
   10.8583   -2.6527   20.7222 C   0  0  0  0  0  0  0  0  0  0  0  0
   10.6412   -3.5089   21.7936 C   0  0  0  0  0  0  0  0  0  0  0  0
   10.4972   -3.8968   24.1589 C   0  0  0  0  0  0  0  0  0  0  0  0
    5.9260   -8.2736   16.5517 C   0  0  0  0  0  0  0  0  0  0  0  0
    3.8816   -9.1166   17.2493 C   0  0  0  0  0  0  0  0  0  0  0  0
   10.1297   -1.6575   23.2324 C   0  0  0  0  0  0  0  0  0  0  0  0
    9.4684   -1.6929   26.7263 F   0  0  0  0  0  0  0  0  0  0  0  0
    7.7963   -7.7906   17.9837 C   0  0  0  0  0  0  0  0  0  0  0  0
   10.5884   -3.0725   16.7902 O   0  0  0  0  0  0  0  0  0  0  0  0
   10.4323   -5.3494   20.3516 C   0  0  0  0  0  0  0  0  0  0  0  0
    7.1156   -7.5454   16.8218 C   0  0  0  0  0  0  0  0  0  0  0  0
   10.3885   -4.4388   19.2773 C   0  0  0  0  0  0  0  0  0  0  0  0
    4.5160   -9.3822   15.0841 C   0  0  0  0  0  0  0  0  0  0  0  0
  1  3  4  0
  1 24  4  0
  2  6  4  0
  2 15  4  0
  3  5  4  0
  3  6  4  0
  4 21  4  0
  4 29  4  0
  5 15  4  0
  5 28  1  0
  6 16  4  0
  7 18  4  0
  7 26  4  0
  8 18  1  0
  8 19  4  0
  8 22  4  0
  9 12  4  0
  9 19  4  0
 10 12  4  0
 10 22  4  0
 11 20  4  0
 11 21  4  0
 12 23  1  0
 13 20  4  0
 13 29  4  0
 14 17  4  0
 14 28  4  0
 15 25  2  0
 16 27  4  0
 17 18  4  0
 20 27  1  0
 24 27  4  0
 26 28  4  0
M  END
$$$$

 Created by Python create_sdf_string function

 29 33  0  0  0  0  0  0  0  0999 V2000
    8.8270   -7.0288   18.4251 C   0  0  0  0  0  0  0  0  0  0  0  0
    9.1576   -4.6236   15.8860 O   0  0  0  0  0  0  0  0  0  0  0  0
    9.1509   -5.9108   17.7177 C   0  0  0  0  0  0  0  0  0  0  0  0
    3.6373   -9.5349   16.0582 N   0  0  0  0  0  0  0  0  0  0  0  0
    9.9275   -4.8001   18.0438 N   0  0  0  0  0  0  0  0  0  0  0  0
    8.5908   -5.7425   16.4412 C   0  0  0  0  0  0  0  0  0  0  0  0
   10.5993   -4.8981   21.6068 C   0  0  0  0  0  0  0  0  0  0  0  0
   10.4258   -3.0106   23.0998 C   0  0  0  0  0  0  0  0  0  0  0  0
   10.2148   -3.4364   25.4200 C   0  0  0  0  0  0  0  0  0  0  0  0
    9.7853   -1.1840   24.4927 C   0  0  0  0  0  0  0  0  0  0  0  0
    5.0276   -8.5227   17.5352 C   0  0  0  0  0  0  0  0  0  0  0  0
    9.8187   -2.0895   25.5800 C   0  0  0  0  0  0  0  0  0  0  0  0
    5.6473   -8.7216   15.3158 C   0  0  0  0  0  0  0  0  0  0  0  0
   10.7581   -3.1233   19.4720 N   0  0  0  0  0  0  0  0  0  0  0  0
    9.9571   -4.0573   16.8866 C   0  0  0  0  0  0  0  0  0  0  0  0
    7.6213   -6.5618   16.0087 C   0  0  0  0  0  0  0  0  0  0  0  0
   10.8583   -2.6527   20.7222 C   0  0  0  0  0  0  0  0  0  0  0  0
   10.6412   -3.5089   21.7936 C   0  0  0  0  0  0  0  0  0  0  0  0
   10.4972   -3.8968   24.1589 C   0  0  0  0  0  0  0  0  0  0  0  0
    5.9260   -8.2736   16.5517 C   0  0  0  0  0  0  0  0  0  0  0  0
    3.8816   -9.1166   17.2493 C   0  0  0  0  0  0  0  0  0  0  0  0
   10.1297   -1.6575   23.2324 C   0  0  0  0  0  0  0  0  0  0  0  0
    9.4684   -1.6929   26.7263 F   0  0  0  0  0  0  0  0  0  0  0  0
    7.7963   -7.7906   17.9837 C   0  0  0  0  0  0  0  0  0  0  0  0
   10.5884   -3.0725   16.7902 O   0  0  0  0  0  0  0  0  0  0  0  0
   10.4323   -5.3494   20.3516 C   0  0  0  0  0  0  0  0  0  0  0  0
    7.1156   -7.5454   16.8218 C   0  0  0  0  0  0  0  0  0  0  0  0
   10.3885   -4.4388   19.2773 C   0  0  0  0  0  0  0  0  0  0  0  0
    4.5160   -9.3822   15.0841 C   0  0  0  0  0  0  0  0  0  0  0  0
  1  3  4  0
  1 24  4  0
  2  6  4  0
  2 15  4  0
  3  5  4  0
  3  6  4  0
  4 21  4  0
  4 29  4  0
  5 15  4  0
  5 28  1  0
  6 16  4  0
  7 18  4  0
  7 26  4  0
  8 18  1  0
  8 19  4  0
  8 22  4  0
  9 12  4  0
  9 19  4  0
 10 12  4  0
 10 22  4  0
 11 20  4  0
 11 21  4  0
 12 23  1  0
 13 20  4  0
 13 29  4  0
 14 17  4  0
 14 28  4  0
 15 25  2  0
 16 27  4  0
 17 18  4  0
 20 27  1  0
 24 27  4  0
 26 28  4  0
M  END
$$$$

 Created by Python create_sdf_string function

 29 33  0  0  0  0  0  0  0  0999 V2000
    8.8270   -7.0288   18.4251 C   0  0  0  0  0  0  0  0  0  0  0  0
    9.1576   -4.6236   15.8860 O   0  0  0  0  0  0  0  0  0  0  0  0
    9.1509   -5.9108   17.7177 C   0  0  0  0  0  0  0  0  0  0  0  0
    3.6373   -9.5349   16.0582 N   0  0  0  0  0  0  0  0  0  0  0  0
    9.9275   -4.8001   18.0438 N   0  0  0  0  0  0  0  0  0  0  0  0
    8.5908   -5.7425   16.4412 C   0  0  0  0  0  0  0  0  0  0  0  0
   10.5993   -4.8981   21.6068 C   0  0  0  0  0  0  0  0  0  0  0  0
   10.4258   -3.0106   23.0998 C   0  0  0  0  0  0  0  0  0  0  0  0
   10.2148   -3.4364   25.4200 C   0  0  0  0  0  0  0  0  0  0  0  0
    9.7853   -1.1840   24.4927 C   0  0  0  0  0  0  0  0  0  0  0  0
    5.0276   -8.5227   17.5352 C   0  0  0  0  0  0  0  0  0  0  0  0
    9.8187   -2.0895   25.5800 C   0  0  0  0  0  0  0  0  0  0  0  0
    5.6473   -8.7216   15.3158 C   0  0  0  0  0  0  0  0  0  0  0  0
   10.7581   -3.1233   19.4720 N   0  0  0  0  0  0  0  0  0  0  0  0
    9.9571   -4.0573   16.8866 C   0  0  0  0  0  0  0  0  0  0  0  0
    7.6213   -6.5618   16.0087 C   0  0  0  0  0  0  0  0  0  0  0  0
   10.8583   -2.6527   20.7222 C   0  0  0  0  0  0  0  0  0  0  0  0
   10.6412   -3.5089   21.7936 C   0  0  0  0  0  0  0  0  0  0  0  0
   10.4972   -3.8968   24.1589 C   0  0  0  0  0  0  0  0  0  0  0  0
    5.9260   -8.2736   16.5517 C   0  0  0  0  0  0  0  0  0  0  0  0
    3.8816   -9.1166   17.2493 C   0  0  0  0  0  0  0  0  0  0  0  0
   10.1297   -1.6575   23.2324 C   0  0  0  0  0  0  0  0  0  0  0  0
    9.4684   -1.6929   26.7263 F   0  0  0  0  0  0  0  0  0  0  0  0
    7.7963   -7.7906   17.9837 C   0  0  0  0  0  0  0  0  0  0  0  0
   10.5884   -3.0725   16.7902 O   0  0  0  0  0  0  0  0  0  0  0  0
   10.4323   -5.3494   20.3516 C   0  0  0  0  0  0  0  0  0  0  0  0
    7.1156   -7.5454   16.8218 C   0  0  0  0  0  0  0  0  0  0  0  0
   10.3885   -4.4388   19.2773 C   0  0  0  0  0  0  0  0  0  0  0  0
    4.5160   -9.3822   15.0841 C   0  0  0  0  0  0  0  0  0  0  0  0
  1  3  4  0
  1 24  4  0
  2  6  4  0
  2 15  4  0
  3  5  4  0
  3  6  4  0
  4 21  4  0
  4 29  4  0
  5 15  4  0
  5 28  1  0
  6 16  4  0
  7 18  4  0
  7 26  4  0
  8 18  1  0
  8 19  4  0
  8 22  4  0
  9 12  4  0
  9 19  4  0
 10 12  4  0
 10 22  4  0
 11 20  4  0
 11 21  4  0
 12 23  1  0
 13 20  4  0
 13 29  4  0
 14 17  4  0
 14 28  4  0
 15 25  2  0
 16 27  4  0
 17 18  4  0
 20 27  1  0
 24 27  4  0
 26 28  4  0
M  END
$$$$

 Created by Python create_sdf_string function

 29 33  0  0  0  0  0  0  0  0999 V2000
    8.8270   -7.0288   18.4251 C   0  0  0  0  0  0  0  0  0  0  0  0
    9.1576   -4.6236   15.8860 O   0  0  0  0  0  0  0  0  0  0  0  0
    9.1509   -5.9108   17.7177 C   0  0  0  0  0  0  0  0  0  0  0  0
    3.6373   -9.5349   16.0582 N   0  0  0  0  0  0  0  0  0  0  0  0
    9.9275   -4.8001   18.0438 N   0  0  0  0  0  0  0  0  0  0  0  0
    8.5908   -5.7425   16.4412 C   0  0  0  0  0  0  0  0  0  0  0  0
   10.5993   -4.8981   21.6068 C   0  0  0  0  0  0  0  0  0  0  0  0
   10.4258   -3.0106   23.0998 C   0  0  0  0  0  0  0  0  0  0  0  0
   10.2148   -3.4364   25.4200 C   0  0  0  0  0  0  0  0  0  0  0  0
    9.7853   -1.1840   24.4927 C   0  0  0  0  0  0  0  0  0  0  0  0
    5.0276   -8.5227   17.5352 C   0  0  0  0  0  0  0  0  0  0  0  0
    9.8187   -2.0895   25.5800 C   0  0  0  0  0  0  0  0  0  0  0  0
    5.6473   -8.7216   15.3158 C   0  0  0  0  0  0  0  0  0  0  0  0
   10.7581   -3.1233   19.4720 N   0  0  0  0  0  0  0  0  0  0  0  0
    9.9571   -4.0573   16.8866 C   0  0  0  0  0  0  0  0  0  0  0  0
    7.6213   -6.5618   16.0087 C   0  0  0  0  0  0  0  0  0  0  0  0
   10.8583   -2.6527   20.7222 C   0  0  0  0  0  0  0  0  0  0  0  0
   10.6412   -3.5089   21.7936 C   0  0  0  0  0  0  0  0  0  0  0  0
   10.4972   -3.8968   24.1589 C   0  0  0  0  0  0  0  0  0  0  0  0
    5.9260   -8.2736   16.5517 C   0  0  0  0  0  0  0  0  0  0  0  0
    3.8816   -9.1166   17.2493 C   0  0  0  0  0  0  0  0  0  0  0  0
   10.1297   -1.6575   23.2324 C   0  0  0  0  0  0  0  0  0  0  0  0
    9.4684   -1.6929   26.7263 F   0  0  0  0  0  0  0  0  0  0  0  0
    7.7963   -7.7906   17.9837 C   0  0  0  0  0  0  0  0  0  0  0  0
   10.5884   -3.0725   16.7902 O   0  0  0  0  0  0  0  0  0  0  0  0
   10.4323   -5.3494   20.3516 C   0  0  0  0  0  0  0  0  0  0  0  0
    7.1156   -7.5454   16.8218 C   0  0  0  0  0  0  0  0  0  0  0  0
   10.3885   -4.4388   19.2773 C   0  0  0  0  0  0  0  0  0  0  0  0
    4.5160   -9.3822   15.0841 C   0  0  0  0  0  0  0  0  0  0  0  0
  1  3  4  0
  1 24  4  0
  2  6  4  0
  2 15  4  0
  3  5  4  0
  3  6  4  0
  4 21  4  0
  4 29  4  0
  5 15  4  0
  5 28  1  0
  6 16  4  0
  7 18  4  0
  7 26  4  0
  8 18  1  0
  8 19  4  0
  8 22  4  0
  9 12  4  0
  9 19  4  0
 10 12  4  0
 10 22  4  0
 11 20  4  0
 11 21  4  0
 12 23  1  0
 13 20  4  0
 13 29  4  0
 14 17  4  0
 14 28  4  0
 15 25  2  0
 16 27  4  0
 17 18  4  0
 20 27  1  0
 24 27  4  0
 26 28  4  0
M  END
$$$$

 Created by Python create_sdf_string function

 29 33  0  0  0  0  0  0  0  0999 V2000
    8.8270   -7.0288   18.4251 C   0  0  0  0  0  0  0  0  0  0  0  0
    9.1576   -4.6236   15.8860 O   0  0  0  0  0  0  0  0  0  0  0  0
    9.1509   -5.9108   17.7177 C   0  0  0  0  0  0  0  0  0  0  0  0
    3.6373   -9.5349   16.0582 N   0  0  0  0  0  0  0  0  0  0  0  0
    9.9275   -4.8001   18.0438 N   0  0  0  0  0  0  0  0  0  0  0  0
    8.5908   -5.7425   16.4412 C   0  0  0  0  0  0  0  0  0  0  0  0
   10.5993   -4.8981   21.6068 C   0  0  0  0  0  0  0  0  0  0  0  0
   10.4258   -3.0106   23.0998 C   0  0  0  0  0  0  0  0  0  0  0  0
   10.2148   -3.4364   25.4200 C   0  0  0  0  0  0  0  0  0  0  0  0
    9.7853   -1.1840   24.4927 C   0  0  0  0  0  0  0  0  0  0  0  0
    5.0276   -8.5227   17.5352 C   0  0  0  0  0  0  0  0  0  0  0  0
    9.8187   -2.0895   25.5800 C   0  0  0  0  0  0  0  0  0  0  0  0
    5.6473   -8.7216   15.3158 C   0  0  0  0  0  0  0  0  0  0  0  0
   10.7581   -3.1233   19.4720 N   0  0  0  0  0  0  0  0  0  0  0  0
    9.9571   -4.0573   16.8866 C   0  0  0  0  0  0  0  0  0  0  0  0
    7.6213   -6.5618   16.0087 C   0  0  0  0  0  0  0  0  0  0  0  0
   10.8583   -2.6527   20.7222 C   0  0  0  0  0  0  0  0  0  0  0  0
   10.6412   -3.5089   21.7936 C   0  0  0  0  0  0  0  0  0  0  0  0
   10.4972   -3.8968   24.1589 C   0  0  0  0  0  0  0  0  0  0  0  0
    5.9260   -8.2736   16.5517 C   0  0  0  0  0  0  0  0  0  0  0  0
    3.8816   -9.1166   17.2493 C   0  0  0  0  0  0  0  0  0  0  0  0
   10.1297   -1.6575   23.2324 C   0  0  0  0  0  0  0  0  0  0  0  0
    9.4684   -1.6929   26.7263 F   0  0  0  0  0  0  0  0  0  0  0  0
    7.7963   -7.7906   17.9837 C   0  0  0  0  0  0  0  0  0  0  0  0
   10.5884   -3.0725   16.7902 O   0  0  0  0  0  0  0  0  0  0  0  0
   10.4323   -5.3494   20.3516 C   0  0  0  0  0  0  0  0  0  0  0  0
    7.1156   -7.5454   16.8218 C   0  0  0  0  0  0  0  0  0  0  0  0
   10.3885   -4.4388   19.2773 C   0  0  0  0  0  0  0  0  0  0  0  0
    4.5160   -9.3822   15.0841 C   0  0  0  0  0  0  0  0  0  0  0  0
  1  3  4  0
  1 24  4  0
  2  6  4  0
  2 15  4  0
  3  5  4  0
  3  6  4  0
  4 21  4  0
  4 29  4  0
  5 15  4  0
  5 28  1  0
  6 16  4  0
  7 18  4  0
  7 26  4  0
  8 18  1  0
  8 19  4  0
  8 22  4  0
  9 12  4  0
  9 19  4  0
 10 12  4  0
 10 22  4  0
 11 20  4  0
 11 21  4  0
 12 23  1  0
 13 20  4  0
 13 29  4  0
 14 17  4  0
 14 28  4  0
 15 25  2  0
 16 27  4  0
 17 18  4  0
 20 27  1  0
 24 27  4  0
 26 28  4  0
M  END
$$$$

 Created by Python create_sdf_string function

 29 33  0  0  0  0  0  0  0  0999 V2000
    8.8270   -7.0288   18.4251 C   0  0  0  0  0  0  0  0  0  0  0  0
    9.1576   -4.6236   15.8860 O   0  0  0  0  0  0  0  0  0  0  0  0
    9.1509   -5.9108   17.7177 C   0  0  0  0  0  0  0  0  0  0  0  0
    3.6373   -9.5349   16.0582 N   0  0  0  0  0  0  0  0  0  0  0  0
    9.9275   -4.8001   18.0438 N   0  0  0  0  0  0  0  0  0  0  0  0
    8.5908   -5.7425   16.4412 C   0  0  0  0  0  0  0  0  0  0  0  0
   10.5993   -4.8981   21.6068 C   0  0  0  0  0  0  0  0  0  0  0  0
   10.4258   -3.0106   23.0998 C   0  0  0  0  0  0  0  0  0  0  0  0
   10.2148   -3.4364   25.4200 C   0  0  0  0  0  0  0  0  0  0  0  0
    9.7853   -1.1840   24.4927 C   0  0  0  0  0  0  0  0  0  0  0  0
    5.0276   -8.5227   17.5352 C   0  0  0  0  0  0  0  0  0  0  0  0
    9.8187   -2.0895   25.5800 C   0  0  0  0  0  0  0  0  0  0  0  0
    5.6473   -8.7216   15.3158 C   0  0  0  0  0  0  0  0  0  0  0  0
   10.7581   -3.1233   19.4720 N   0  0  0  0  0  0  0  0  0  0  0  0
    9.9571   -4.0573   16.8866 C   0  0  0  0  0  0  0  0  0  0  0  0
    7.6213   -6.5618   16.0087 C   0  0  0  0  0  0  0  0  0  0  0  0
   10.8583   -2.6527   20.7222 C   0  0  0  0  0  0  0  0  0  0  0  0
   10.6412   -3.5089   21.7936 C   0  0  0  0  0  0  0  0  0  0  0  0
   10.4972   -3.8968   24.1589 C   0  0  0  0  0  0  0  0  0  0  0  0
    5.9260   -8.2736   16.5517 C   0  0  0  0  0  0  0  0  0  0  0  0
    3.8816   -9.1166   17.2493 C   0  0  0  0  0  0  0  0  0  0  0  0
   10.1297   -1.6575   23.2324 C   0  0  0  0  0  0  0  0  0  0  0  0
    9.4684   -1.6929   26.7263 F   0  0  0  0  0  0  0  0  0  0  0  0
    7.7963   -7.7906   17.9837 C   0  0  0  0  0  0  0  0  0  0  0  0
   10.5884   -3.0725   16.7902 O   0  0  0  0  0  0  0  0  0  0  0  0
   10.4323   -5.3494   20.3516 C   0  0  0  0  0  0  0  0  0  0  0  0
    7.1156   -7.5454   16.8218 C   0  0  0  0  0  0  0  0  0  0  0  0
   10.3885   -4.4388   19.2773 C   0  0  0  0  0  0  0  0  0  0  0  0
    4.5160   -9.3822   15.0841 C   0  0  0  0  0  0  0  0  0  0  0  0
  1  3  4  0
  1 24  4  0
  2  6  4  0
  2 15  4  0
  3  5  4  0
  3  6  4  0
  4 21  4  0
  4 29  4  0
  5 15  4  0
  5 28  1  0
  6 16  4  0
  7 18  4  0
  7 26  4  0
  8 18  1  0
  8 19  4  0
  8 22  4  0
  9 12  4  0
  9 19  4  0
 10 12  4  0
 10 22  4  0
 11 20  4  0
 11 21  4  0
 12 23  1  0
 13 20  4  0
 13 29  4  0
 14 17  4  0
 14 28  4  0
 15 25  2  0
 16 27  4  0
 17 18  4  0
 20 27  1  0
 24 27  4  0
 26 28  4  0
M  END
$$$$

 Created by Python create_sdf_string function

 29 33  0  0  0  0  0  0  0  0999 V2000
    8.8270   -7.0288   18.4251 C   0  0  0  0  0  0  0  0  0  0  0  0
    9.1576   -4.6236   15.8860 O   0  0  0  0  0  0  0  0  0  0  0  0
    9.1509   -5.9108   17.7177 C   0  0  0  0  0  0  0  0  0  0  0  0
    3.6373   -9.5349   16.0582 N   0  0  0  0  0  0  0  0  0  0  0  0
    9.9275   -4.8001   18.0438 N   0  0  0  0  0  0  0  0  0  0  0  0
    8.5908   -5.7425   16.4412 C   0  0  0  0  0  0  0  0  0  0  0  0
   10.5993   -4.8981   21.6068 C   0  0  0  0  0  0  0  0  0  0  0  0
   10.4258   -3.0106   23.0998 C   0  0  0  0  0  0  0  0  0  0  0  0
   10.2148   -3.4364   25.4200 C   0  0  0  0  0  0  0  0  0  0  0  0
    9.7853   -1.1840   24.4927 C   0  0  0  0  0  0  0  0  0  0  0  0
    5.0276   -8.5227   17.5352 C   0  0  0  0  0  0  0  0  0  0  0  0
    9.8187   -2.0895   25.5800 C   0  0  0  0  0  0  0  0  0  0  0  0
    5.6473   -8.7216   15.3158 C   0  0  0  0  0  0  0  0  0  0  0  0
   10.7581   -3.1233   19.4720 N   0  0  0  0  0  0  0  0  0  0  0  0
    9.9571   -4.0573   16.8866 C   0  0  0  0  0  0  0  0  0  0  0  0
    7.6213   -6.5618   16.0087 C   0  0  0  0  0  0  0  0  0  0  0  0
   10.8583   -2.6527   20.7222 C   0  0  0  0  0  0  0  0  0  0  0  0
   10.6412   -3.5089   21.7936 C   0  0  0  0  0  0  0  0  0  0  0  0
   10.4972   -3.8968   24.1589 C   0  0  0  0  0  0  0  0  0  0  0  0
    5.9260   -8.2736   16.5517 C   0  0  0  0  0  0  0  0  0  0  0  0
    3.8816   -9.1166   17.2493 C   0  0  0  0  0  0  0  0  0  0  0  0
   10.1297   -1.6575   23.2324 C   0  0  0  0  0  0  0  0  0  0  0  0
    9.4684   -1.6929   26.7263 F   0  0  0  0  0  0  0  0  0  0  0  0
    7.7963   -7.7906   17.9837 C   0  0  0  0  0  0  0  0  0  0  0  0
   10.5884   -3.0725   16.7902 O   0  0  0  0  0  0  0  0  0  0  0  0
   10.4323   -5.3494   20.3516 C   0  0  0  0  0  0  0  0  0  0  0  0
    7.1156   -7.5454   16.8218 C   0  0  0  0  0  0  0  0  0  0  0  0
   10.3885   -4.4388   19.2773 C   0  0  0  0  0  0  0  0  0  0  0  0
    4.5160   -9.3822   15.0841 C   0  0  0  0  0  0  0  0  0  0  0  0
  1  3  4  0
  1 24  4  0
  2  6  4  0
  2 15  4  0
  3  5  4  0
  3  6  4  0
  4 21  4  0
  4 29  4  0
  5 15  4  0
  5 28  1  0
  6 16  4  0
  7 18  4  0
  7 26  4  0
  8 18  1  0
  8 19  4  0
  8 22  4  0
  9 12  4  0
  9 19  4  0
 10 12  4  0
 10 22  4  0
 11 20  4  0
 11 21  4  0
 12 23  1  0
 13 20  4  0
 13 29  4  0
 14 17  4  0
 14 28  4  0
 15 25  2  0
 16 27  4  0
 17 18  4  0
 20 27  1  0
 24 27  4  0
 26 28  4  0
M  END
$$$$

 Created by Python create_sdf_string function

 29 33  0  0  0  0  0  0  0  0999 V2000
    8.8270   -7.0288   18.4251 C   0  0  0  0  0  0  0  0  0  0  0  0
    9.1576   -4.6236   15.8860 O   0  0  0  0  0  0  0  0  0  0  0  0
    9.1509   -5.9108   17.7177 C   0  0  0  0  0  0  0  0  0  0  0  0
    3.6373   -9.5349   16.0582 N   0  0  0  0  0  0  0  0  0  0  0  0
    9.9275   -4.8001   18.0438 N   0  0  0  0  0  0  0  0  0  0  0  0
    8.5908   -5.7425   16.4412 C   0  0  0  0  0  0  0  0  0  0  0  0
   10.5993   -4.8981   21.6068 C   0  0  0  0  0  0  0  0  0  0  0  0
   10.4258   -3.0106   23.0998 C   0  0  0  0  0  0  0  0  0  0  0  0
   10.2148   -3.4364   25.4200 C   0  0  0  0  0  0  0  0  0  0  0  0
    9.7853   -1.1840   24.4927 C   0  0  0  0  0  0  0  0  0  0  0  0
    5.0276   -8.5227   17.5352 C   0  0  0  0  0  0  0  0  0  0  0  0
    9.8187   -2.0895   25.5800 C   0  0  0  0  0  0  0  0  0  0  0  0
    5.6473   -8.7216   15.3158 C   0  0  0  0  0  0  0  0  0  0  0  0
   10.7581   -3.1233   19.4720 N   0  0  0  0  0  0  0  0  0  0  0  0
    9.9571   -4.0573   16.8866 C   0  0  0  0  0  0  0  0  0  0  0  0
    7.6213   -6.5618   16.0087 C   0  0  0  0  0  0  0  0  0  0  0  0
   10.8583   -2.6527   20.7222 C   0  0  0  0  0  0  0  0  0  0  0  0
   10.6412   -3.5089   21.7936 C   0  0  0  0  0  0  0  0  0  0  0  0
   10.4972   -3.8968   24.1589 C   0  0  0  0  0  0  0  0  0  0  0  0
    5.9260   -8.2736   16.5517 C   0  0  0  0  0  0  0  0  0  0  0  0
    3.8816   -9.1166   17.2493 C   0  0  0  0  0  0  0  0  0  0  0  0
   10.1297   -1.6575   23.2324 C   0  0  0  0  0  0  0  0  0  0  0  0
    9.4684   -1.6929   26.7263 F   0  0  0  0  0  0  0  0  0  0  0  0
    7.7963   -7.7906   17.9837 C   0  0  0  0  0  0  0  0  0  0  0  0
   10.5884   -3.0725   16.7902 O   0  0  0  0  0  0  0  0  0  0  0  0
   10.4323   -5.3494   20.3516 C   0  0  0  0  0  0  0  0  0  0  0  0
    7.1156   -7.5454   16.8218 C   0  0  0  0  0  0  0  0  0  0  0  0
   10.3885   -4.4388   19.2773 C   0  0  0  0  0  0  0  0  0  0  0  0
    4.5160   -9.3822   15.0841 C   0  0  0  0  0  0  0  0  0  0  0  0
  1  3  4  0
  1 24  4  0
  2  6  4  0
  2 15  4  0
  3  5  4  0
  3  6  4  0
  4 21  4  0
  4 29  4  0
  5 15  4  0
  5 28  1  0
  6 16  4  0
  7 18  4  0
  7 26  4  0
  8 18  1  0
  8 19  4  0
  8 22  4  0
  9 12  4  0
  9 19  4  0
 10 12  4  0
 10 22  4  0
 11 20  4  0
 11 21  4  0
 12 23  1  0
 13 20  4  0
 13 29  4  0
 14 17  4  0
 14 28  4  0
 15 25  2  0
 16 27  4  0
 17 18  4  0
 20 27  1  0
 24 27  4  0
 26 28  4  0
M  END
$$$$

 Created by Python create_sdf_string function

 29 33  0  0  0  0  0  0  0  0999 V2000
    8.8270   -7.0288   18.4251 C   0  0  0  0  0  0  0  0  0  0  0  0
    9.1576   -4.6236   15.8860 O   0  0  0  0  0  0  0  0  0  0  0  0
    9.1509   -5.9108   17.7177 C   0  0  0  0  0  0  0  0  0  0  0  0
    3.6373   -9.5349   16.0582 N   0  0  0  0  0  0  0  0  0  0  0  0
    9.9275   -4.8001   18.0438 N   0  0  0  0  0  0  0  0  0  0  0  0
    8.5908   -5.7425   16.4412 C   0  0  0  0  0  0  0  0  0  0  0  0
   10.5993   -4.8981   21.6068 C   0  0  0  0  0  0  0  0  0  0  0  0
   10.4258   -3.0106   23.0998 C   0  0  0  0  0  0  0  0  0  0  0  0
   10.2148   -3.4364   25.4200 C   0  0  0  0  0  0  0  0  0  0  0  0
    9.7853   -1.1840   24.4927 C   0  0  0  0  0  0  0  0  0  0  0  0
    5.0276   -8.5227   17.5352 C   0  0  0  0  0  0  0  0  0  0  0  0
    9.8187   -2.0895   25.5800 C   0  0  0  0  0  0  0  0  0  0  0  0
    5.6473   -8.7216   15.3158 C   0  0  0  0  0  0  0  0  0  0  0  0
   10.7581   -3.1233   19.4720 N   0  0  0  0  0  0  0  0  0  0  0  0
    9.9571   -4.0573   16.8866 C   0  0  0  0  0  0  0  0  0  0  0  0
    7.6213   -6.5618   16.0087 C   0  0  0  0  0  0  0  0  0  0  0  0
   10.8583   -2.6527   20.7222 C   0  0  0  0  0  0  0  0  0  0  0  0
   10.6412   -3.5089   21.7936 C   0  0  0  0  0  0  0  0  0  0  0  0
   10.4972   -3.8968   24.1589 C   0  0  0  0  0  0  0  0  0  0  0  0
    5.9260   -8.2736   16.5517 C   0  0  0  0  0  0  0  0  0  0  0  0
    3.8816   -9.1166   17.2493 C   0  0  0  0  0  0  0  0  0  0  0  0
   10.1297   -1.6575   23.2324 C   0  0  0  0  0  0  0  0  0  0  0  0
    9.4684   -1.6929   26.7263 F   0  0  0  0  0  0  0  0  0  0  0  0
    7.7963   -7.7906   17.9837 C   0  0  0  0  0  0  0  0  0  0  0  0
   10.5884   -3.0725   16.7902 O   0  0  0  0  0  0  0  0  0  0  0  0
   10.4323   -5.3494   20.3516 C   0  0  0  0  0  0  0  0  0  0  0  0
    7.1156   -7.5454   16.8218 C   0  0  0  0  0  0  0  0  0  0  0  0
   10.3885   -4.4388   19.2773 C   0  0  0  0  0  0  0  0  0  0  0  0
    4.5160   -9.3822   15.0841 C   0  0  0  0  0  0  0  0  0  0  0  0
  1  3  4  0
  1 24  4  0
  2  6  4  0
  2 15  4  0
  3  5  4  0
  3  6  4  0
  4 21  4  0
  4 29  4  0
  5 15  4  0
  5 28  1  0
  6 16  4  0
  7 18  4  0
  7 26  4  0
  8 18  1  0
  8 19  4  0
  8 22  4  0
  9 12  4  0
  9 19  4  0
 10 12  4  0
 10 22  4  0
 11 20  4  0
 11 21  4  0
 12 23  1  0
 13 20  4  0
 13 29  4  0
 14 17  4  0
 14 28  4  0
 15 25  2  0
 16 27  4  0
 17 18  4  0
 20 27  1  0
 24 27  4  0
 26 28  4  0
M  END
$$$$

 Created by Python create_sdf_string function

 29 33  0  0  0  0  0  0  0  0999 V2000
    8.8270   -7.0288   18.4251 C   0  0  0  0  0  0  0  0  0  0  0  0
    9.1576   -4.6236   15.8860 O   0  0  0  0  0  0  0  0  0  0  0  0
    9.1509   -5.9108   17.7177 C   0  0  0  0  0  0  0  0  0  0  0  0
    3.6373   -9.5349   16.0582 N   0  0  0  0  0  0  0  0  0  0  0  0
    9.9275   -4.8001   18.0438 N   0  0  0  0  0  0  0  0  0  0  0  0
    8.5908   -5.7425   16.4412 C   0  0  0  0  0  0  0  0  0  0  0  0
   10.5993   -4.8981   21.6068 C   0  0  0  0  0  0  0  0  0  0  0  0
   10.4258   -3.0106   23.0998 C   0  0  0  0  0  0  0  0  0  0  0  0
   10.2148   -3.4364   25.4200 C   0  0  0  0  0  0  0  0  0  0  0  0
    9.7853   -1.1840   24.4927 C   0  0  0  0  0  0  0  0  0  0  0  0
    5.0276   -8.5227   17.5352 C   0  0  0  0  0  0  0  0  0  0  0  0
    9.8187   -2.0895   25.5800 C   0  0  0  0  0  0  0  0  0  0  0  0
    5.6473   -8.7216   15.3158 C   0  0  0  0  0  0  0  0  0  0  0  0
   10.7581   -3.1233   19.4720 N   0  0  0  0  0  0  0  0  0  0  0  0
    9.9571   -4.0573   16.8866 C   0  0  0  0  0  0  0  0  0  0  0  0
    7.6213   -6.5618   16.0087 C   0  0  0  0  0  0  0  0  0  0  0  0
   10.8583   -2.6527   20.7222 C   0  0  0  0  0  0  0  0  0  0  0  0
   10.6412   -3.5089   21.7936 C   0  0  0  0  0  0  0  0  0  0  0  0
   10.4972   -3.8968   24.1589 C   0  0  0  0  0  0  0  0  0  0  0  0
    5.9260   -8.2736   16.5517 C   0  0  0  0  0  0  0  0  0  0  0  0
    3.8816   -9.1166   17.2493 C   0  0  0  0  0  0  0  0  0  0  0  0
   10.1297   -1.6575   23.2324 C   0  0  0  0  0  0  0  0  0  0  0  0
    9.4684   -1.6929   26.7263 F   0  0  0  0  0  0  0  0  0  0  0  0
    7.7963   -7.7906   17.9837 C   0  0  0  0  0  0  0  0  0  0  0  0
   10.5884   -3.0725   16.7902 O   0  0  0  0  0  0  0  0  0  0  0  0
   10.4323   -5.3494   20.3516 C   0  0  0  0  0  0  0  0  0  0  0  0
    7.1156   -7.5454   16.8218 C   0  0  0  0  0  0  0  0  0  0  0  0
   10.3885   -4.4388   19.2773 C   0  0  0  0  0  0  0  0  0  0  0  0
    4.5160   -9.3822   15.0841 C   0  0  0  0  0  0  0  0  0  0  0  0
  1  3  4  0
  1 24  4  0
  2  6  4  0
  2 15  4  0
  3  5  4  0
  3  6  4  0
  4 21  4  0
  4 29  4  0
  5 15  4  0
  5 28  1  0
  6 16  4  0
  7 18  4  0
  7 26  4  0
  8 18  1  0
  8 19  4  0
  8 22  4  0
  9 12  4  0
  9 19  4  0
 10 12  4  0
 10 22  4  0
 11 20  4  0
 11 21  4  0
 12 23  1  0
 13 20  4  0
 13 29  4  0
 14 17  4  0
 14 28  4  0
 15 25  2  0
 16 27  4  0
 17 18  4  0
 20 27  1  0
 24 27  4  0
 26 28  4  0
M  END
$$$$

 Created by Python create_sdf_string function

 29 33  0  0  0  0  0  0  0  0999 V2000
    8.8270   -7.0288   18.4251 C   0  0  0  0  0  0  0  0  0  0  0  0
    9.1576   -4.6236   15.8860 O   0  0  0  0  0  0  0  0  0  0  0  0
    9.1509   -5.9108   17.7177 C   0  0  0  0  0  0  0  0  0  0  0  0
    3.6373   -9.5349   16.0582 N   0  0  0  0  0  0  0  0  0  0  0  0
    9.9275   -4.8001   18.0438 N   0  0  0  0  0  0  0  0  0  0  0  0
    8.5908   -5.7425   16.4412 C   0  0  0  0  0  0  0  0  0  0  0  0
   10.5993   -4.8981   21.6068 C   0  0  0  0  0  0  0  0  0  0  0  0
   10.4258   -3.0106   23.0998 C   0  0  0  0  0  0  0  0  0  0  0  0
   10.2148   -3.4364   25.4200 C   0  0  0  0  0  0  0  0  0  0  0  0
    9.7853   -1.1840   24.4927 C   0  0  0  0  0  0  0  0  0  0  0  0
    5.0276   -8.5227   17.5352 C   0  0  0  0  0  0  0  0  0  0  0  0
    9.8187   -2.0895   25.5800 C   0  0  0  0  0  0  0  0  0  0  0  0
    5.6473   -8.7216   15.3158 C   0  0  0  0  0  0  0  0  0  0  0  0
   10.7581   -3.1233   19.4720 N   0  0  0  0  0  0  0  0  0  0  0  0
    9.9571   -4.0573   16.8866 C   0  0  0  0  0  0  0  0  0  0  0  0
    7.6213   -6.5618   16.0087 C   0  0  0  0  0  0  0  0  0  0  0  0
   10.8583   -2.6527   20.7222 C   0  0  0  0  0  0  0  0  0  0  0  0
   10.6412   -3.5089   21.7936 C   0  0  0  0  0  0  0  0  0  0  0  0
   10.4972   -3.8968   24.1589 C   0  0  0  0  0  0  0  0  0  0  0  0
    5.9260   -8.2736   16.5517 C   0  0  0  0  0  0  0  0  0  0  0  0
    3.8816   -9.1166   17.2493 C   0  0  0  0  0  0  0  0  0  0  0  0
   10.1297   -1.6575   23.2324 C   0  0  0  0  0  0  0  0  0  0  0  0
    9.4684   -1.6929   26.7263 F   0  0  0  0  0  0  0  0  0  0  0  0
    7.7963   -7.7906   17.9837 C   0  0  0  0  0  0  0  0  0  0  0  0
   10.5884   -3.0725   16.7902 O   0  0  0  0  0  0  0  0  0  0  0  0
   10.4323   -5.3494   20.3516 C   0  0  0  0  0  0  0  0  0  0  0  0
    7.1156   -7.5454   16.8218 C   0  0  0  0  0  0  0  0  0  0  0  0
   10.3885   -4.4388   19.2773 C   0  0  0  0  0  0  0  0  0  0  0  0
    4.5160   -9.3822   15.0841 C   0  0  0  0  0  0  0  0  0  0  0  0
  1  3  4  0
  1 24  4  0
  2  6  4  0
  2 15  4  0
  3  5  4  0
  3  6  4  0
  4 21  4  0
  4 29  4  0
  5 15  4  0
  5 28  1  0
  6 16  4  0
  7 18  4  0
  7 26  4  0
  8 18  1  0
  8 19  4  0
  8 22  4  0
  9 12  4  0
  9 19  4  0
 10 12  4  0
 10 22  4  0
 11 20  4  0
 11 21  4  0
 12 23  1  0
 13 20  4  0
 13 29  4  0
 14 17  4  0
 14 28  4  0
 15 25  2  0
 16 27  4  0
 17 18  4  0
 20 27  1  0
 24 27  4  0
 26 28  4  0
M  END
$$$$

 Created by Python create_sdf_string function

 29 33  0  0  0  0  0  0  0  0999 V2000
    8.8270   -7.0288   18.4251 C   0  0  0  0  0  0  0  0  0  0  0  0
    9.1576   -4.6236   15.8860 O   0  0  0  0  0  0  0  0  0  0  0  0
    9.1509   -5.9108   17.7177 C   0  0  0  0  0  0  0  0  0  0  0  0
    3.6373   -9.5349   16.0582 N   0  0  0  0  0  0  0  0  0  0  0  0
    9.9275   -4.8001   18.0438 N   0  0  0  0  0  0  0  0  0  0  0  0
    8.5908   -5.7425   16.4412 C   0  0  0  0  0  0  0  0  0  0  0  0
   10.5993   -4.8981   21.6068 C   0  0  0  0  0  0  0  0  0  0  0  0
   10.4258   -3.0106   23.0998 C   0  0  0  0  0  0  0  0  0  0  0  0
   10.2148   -3.4364   25.4200 C   0  0  0  0  0  0  0  0  0  0  0  0
    9.7853   -1.1840   24.4927 C   0  0  0  0  0  0  0  0  0  0  0  0
    5.0276   -8.5227   17.5352 C   0  0  0  0  0  0  0  0  0  0  0  0
    9.8187   -2.0895   25.5800 C   0  0  0  0  0  0  0  0  0  0  0  0
    5.6473   -8.7216   15.3158 C   0  0  0  0  0  0  0  0  0  0  0  0
   10.7581   -3.1233   19.4720 N   0  0  0  0  0  0  0  0  0  0  0  0
    9.9571   -4.0573   16.8866 C   0  0  0  0  0  0  0  0  0  0  0  0
    7.6213   -6.5618   16.0087 C   0  0  0  0  0  0  0  0  0  0  0  0
   10.8583   -2.6527   20.7222 C   0  0  0  0  0  0  0  0  0  0  0  0
   10.6412   -3.5089   21.7936 C   0  0  0  0  0  0  0  0  0  0  0  0
   10.4972   -3.8968   24.1589 C   0  0  0  0  0  0  0  0  0  0  0  0
    5.9260   -8.2736   16.5517 C   0  0  0  0  0  0  0  0  0  0  0  0
    3.8816   -9.1166   17.2493 C   0  0  0  0  0  0  0  0  0  0  0  0
   10.1297   -1.6575   23.2324 C   0  0  0  0  0  0  0  0  0  0  0  0
    9.4684   -1.6929   26.7263 F   0  0  0  0  0  0  0  0  0  0  0  0
    7.7963   -7.7906   17.9837 C   0  0  0  0  0  0  0  0  0  0  0  0
   10.5884   -3.0725   16.7902 O   0  0  0  0  0  0  0  0  0  0  0  0
   10.4323   -5.3494   20.3516 C   0  0  0  0  0  0  0  0  0  0  0  0
    7.1156   -7.5454   16.8218 C   0  0  0  0  0  0  0  0  0  0  0  0
   10.3885   -4.4388   19.2773 C   0  0  0  0  0  0  0  0  0  0  0  0
    4.5160   -9.3822   15.0841 C   0  0  0  0  0  0  0  0  0  0  0  0
  1  3  4  0
  1 24  4  0
  2  6  4  0
  2 15  4  0
  3  5  4  0
  3  6  4  0
  4 21  4  0
  4 29  4  0
  5 15  4  0
  5 28  1  0
  6 16  4  0
  7 18  4  0
  7 26  4  0
  8 18  1  0
  8 19  4  0
  8 22  4  0
  9 12  4  0
  9 19  4  0
 10 12  4  0
 10 22  4  0
 11 20  4  0
 11 21  4  0
 12 23  1  0
 13 20  4  0
 13 29  4  0
 14 17  4  0
 14 28  4  0
 15 25  2  0
 16 27  4  0
 17 18  4  0
 20 27  1  0
 24 27  4  0
 26 28  4  0
M  END
$$$$

 Created by Python create_sdf_string function

 29 33  0  0  0  0  0  0  0  0999 V2000
    8.8270   -7.0288   18.4251 C   0  0  0  0  0  0  0  0  0  0  0  0
    9.1576   -4.6236   15.8860 O   0  0  0  0  0  0  0  0  0  0  0  0
    9.1509   -5.9108   17.7177 C   0  0  0  0  0  0  0  0  0  0  0  0
    3.6373   -9.5349   16.0582 N   0  0  0  0  0  0  0  0  0  0  0  0
    9.9275   -4.8001   18.0438 N   0  0  0  0  0  0  0  0  0  0  0  0
    8.5908   -5.7425   16.4412 C   0  0  0  0  0  0  0  0  0  0  0  0
   10.5993   -4.8981   21.6068 C   0  0  0  0  0  0  0  0  0  0  0  0
   10.4258   -3.0106   23.0998 C   0  0  0  0  0  0  0  0  0  0  0  0
   10.2148   -3.4364   25.4200 C   0  0  0  0  0  0  0  0  0  0  0  0
    9.7853   -1.1840   24.4927 C   0  0  0  0  0  0  0  0  0  0  0  0
    5.0276   -8.5227   17.5352 C   0  0  0  0  0  0  0  0  0  0  0  0
    9.8187   -2.0895   25.5800 C   0  0  0  0  0  0  0  0  0  0  0  0
    5.6473   -8.7216   15.3158 C   0  0  0  0  0  0  0  0  0  0  0  0
   10.7581   -3.1233   19.4720 N   0  0  0  0  0  0  0  0  0  0  0  0
    9.9571   -4.0573   16.8866 C   0  0  0  0  0  0  0  0  0  0  0  0
    7.6213   -6.5618   16.0087 C   0  0  0  0  0  0  0  0  0  0  0  0
   10.8583   -2.6527   20.7222 C   0  0  0  0  0  0  0  0  0  0  0  0
   10.6412   -3.5089   21.7936 C   0  0  0  0  0  0  0  0  0  0  0  0
   10.4972   -3.8968   24.1589 C   0  0  0  0  0  0  0  0  0  0  0  0
    5.9260   -8.2736   16.5517 C   0  0  0  0  0  0  0  0  0  0  0  0
    3.8816   -9.1166   17.2493 C   0  0  0  0  0  0  0  0  0  0  0  0
   10.1297   -1.6575   23.2324 C   0  0  0  0  0  0  0  0  0  0  0  0
    9.4684   -1.6929   26.7263 F   0  0  0  0  0  0  0  0  0  0  0  0
    7.7963   -7.7906   17.9837 C   0  0  0  0  0  0  0  0  0  0  0  0
   10.5884   -3.0725   16.7902 O   0  0  0  0  0  0  0  0  0  0  0  0
   10.4323   -5.3494   20.3516 C   0  0  0  0  0  0  0  0  0  0  0  0
    7.1156   -7.5454   16.8218 C   0  0  0  0  0  0  0  0  0  0  0  0
   10.3885   -4.4388   19.2773 C   0  0  0  0  0  0  0  0  0  0  0  0
    4.5160   -9.3822   15.0841 C   0  0  0  0  0  0  0  0  0  0  0  0
  1  3  4  0
  1 24  4  0
  2  6  4  0
  2 15  4  0
  3  5  4  0
  3  6  4  0
  4 21  4  0
  4 29  4  0
  5 15  4  0
  5 28  1  0
  6 16  4  0
  7 18  4  0
  7 26  4  0
  8 18  1  0
  8 19  4  0
  8 22  4  0
  9 12  4  0
  9 19  4  0
 10 12  4  0
 10 22  4  0
 11 20  4  0
 11 21  4  0
 12 23  1  0
 13 20  4  0
 13 29  4  0
 14 17  4  0
 14 28  4  0
 15 25  2  0
 16 27  4  0
 17 18  4  0
 20 27  1  0
 24 27  4  0
 26 28  4  0
M  END
$$$$

 Created by Python create_sdf_string function

 29 33  0  0  0  0  0  0  0  0999 V2000
    8.8270   -7.0288   18.4251 C   0  0  0  0  0  0  0  0  0  0  0  0
    9.1576   -4.6236   15.8860 O   0  0  0  0  0  0  0  0  0  0  0  0
    9.1509   -5.9108   17.7177 C   0  0  0  0  0  0  0  0  0  0  0  0
    3.6373   -9.5349   16.0582 N   0  0  0  0  0  0  0  0  0  0  0  0
    9.9275   -4.8001   18.0438 N   0  0  0  0  0  0  0  0  0  0  0  0
    8.5908   -5.7425   16.4412 C   0  0  0  0  0  0  0  0  0  0  0  0
   10.5993   -4.8981   21.6068 C   0  0  0  0  0  0  0  0  0  0  0  0
   10.4258   -3.0106   23.0998 C   0  0  0  0  0  0  0  0  0  0  0  0
   10.2148   -3.4364   25.4200 C   0  0  0  0  0  0  0  0  0  0  0  0
    9.7853   -1.1840   24.4927 C   0  0  0  0  0  0  0  0  0  0  0  0
    5.0276   -8.5227   17.5352 C   0  0  0  0  0  0  0  0  0  0  0  0
    9.8187   -2.0895   25.5800 C   0  0  0  0  0  0  0  0  0  0  0  0
    5.6473   -8.7216   15.3158 C   0  0  0  0  0  0  0  0  0  0  0  0
   10.7581   -3.1233   19.4720 N   0  0  0  0  0  0  0  0  0  0  0  0
    9.9571   -4.0573   16.8866 C   0  0  0  0  0  0  0  0  0  0  0  0
    7.6213   -6.5618   16.0087 C   0  0  0  0  0  0  0  0  0  0  0  0
   10.8583   -2.6527   20.7222 C   0  0  0  0  0  0  0  0  0  0  0  0
   10.6412   -3.5089   21.7936 C   0  0  0  0  0  0  0  0  0  0  0  0
   10.4972   -3.8968   24.1589 C   0  0  0  0  0  0  0  0  0  0  0  0
    5.9260   -8.2736   16.5517 C   0  0  0  0  0  0  0  0  0  0  0  0
    3.8816   -9.1166   17.2493 C   0  0  0  0  0  0  0  0  0  0  0  0
   10.1297   -1.6575   23.2324 C   0  0  0  0  0  0  0  0  0  0  0  0
    9.4684   -1.6929   26.7263 F   0  0  0  0  0  0  0  0  0  0  0  0
    7.7963   -7.7906   17.9837 C   0  0  0  0  0  0  0  0  0  0  0  0
   10.5884   -3.0725   16.7902 O   0  0  0  0  0  0  0  0  0  0  0  0
   10.4323   -5.3494   20.3516 C   0  0  0  0  0  0  0  0  0  0  0  0
    7.1156   -7.5454   16.8218 C   0  0  0  0  0  0  0  0  0  0  0  0
   10.3885   -4.4388   19.2773 C   0  0  0  0  0  0  0  0  0  0  0  0
    4.5160   -9.3822   15.0841 C   0  0  0  0  0  0  0  0  0  0  0  0
  1  3  4  0
  1 24  4  0
  2  6  4  0
  2 15  4  0
  3  5  4  0
  3  6  4  0
  4 21  4  0
  4 29  4  0
  5 15  4  0
  5 28  1  0
  6 16  4  0
  7 18  4  0
  7 26  4  0
  8 18  1  0
  8 19  4  0
  8 22  4  0
  9 12  4  0
  9 19  4  0
 10 12  4  0
 10 22  4  0
 11 20  4  0
 11 21  4  0
 12 23  1  0
 13 20  4  0
 13 29  4  0
 14 17  4  0
 14 28  4  0
 15 25  2  0
 16 27  4  0
 17 18  4  0
 20 27  1  0
 24 27  4  0
 26 28  4  0
M  END
$$$$

 Created by Python create_sdf_string function

 29 33  0  0  0  0  0  0  0  0999 V2000
    8.8270   -7.0288   18.4251 C   0  0  0  0  0  0  0  0  0  0  0  0
    9.1576   -4.6236   15.8860 O   0  0  0  0  0  0  0  0  0  0  0  0
    9.1509   -5.9108   17.7177 C   0  0  0  0  0  0  0  0  0  0  0  0
    3.6373   -9.5349   16.0582 N   0  0  0  0  0  0  0  0  0  0  0  0
    9.9275   -4.8001   18.0438 N   0  0  0  0  0  0  0  0  0  0  0  0
    8.5908   -5.7425   16.4412 C   0  0  0  0  0  0  0  0  0  0  0  0
   10.5993   -4.8981   21.6068 C   0  0  0  0  0  0  0  0  0  0  0  0
   10.4258   -3.0106   23.0998 C   0  0  0  0  0  0  0  0  0  0  0  0
   10.2148   -3.4364   25.4200 C   0  0  0  0  0  0  0  0  0  0  0  0
    9.7853   -1.1840   24.4927 C   0  0  0  0  0  0  0  0  0  0  0  0
    5.0276   -8.5227   17.5352 C   0  0  0  0  0  0  0  0  0  0  0  0
    9.8187   -2.0895   25.5800 C   0  0  0  0  0  0  0  0  0  0  0  0
    5.6473   -8.7216   15.3158 C   0  0  0  0  0  0  0  0  0  0  0  0
   10.7581   -3.1233   19.4720 N   0  0  0  0  0  0  0  0  0  0  0  0
    9.9571   -4.0573   16.8866 C   0  0  0  0  0  0  0  0  0  0  0  0
    7.6213   -6.5618   16.0087 C   0  0  0  0  0  0  0  0  0  0  0  0
   10.8583   -2.6527   20.7222 C   0  0  0  0  0  0  0  0  0  0  0  0
   10.6412   -3.5089   21.7936 C   0  0  0  0  0  0  0  0  0  0  0  0
   10.4972   -3.8968   24.1589 C   0  0  0  0  0  0  0  0  0  0  0  0
    5.9260   -8.2736   16.5517 C   0  0  0  0  0  0  0  0  0  0  0  0
    3.8816   -9.1166   17.2493 C   0  0  0  0  0  0  0  0  0  0  0  0
   10.1297   -1.6575   23.2324 C   0  0  0  0  0  0  0  0  0  0  0  0
    9.4684   -1.6929   26.7263 F   0  0  0  0  0  0  0  0  0  0  0  0
    7.7963   -7.7906   17.9837 C   0  0  0  0  0  0  0  0  0  0  0  0
   10.5884   -3.0725   16.7902 O   0  0  0  0  0  0  0  0  0  0  0  0
   10.4323   -5.3494   20.3516 C   0  0  0  0  0  0  0  0  0  0  0  0
    7.1156   -7.5454   16.8218 C   0  0  0  0  0  0  0  0  0  0  0  0
   10.3885   -4.4388   19.2773 C   0  0  0  0  0  0  0  0  0  0  0  0
    4.5160   -9.3822   15.0841 C   0  0  0  0  0  0  0  0  0  0  0  0
  1  3  4  0
  1 24  4  0
  2  6  4  0
  2 15  4  0
  3  5  4  0
  3  6  4  0
  4 21  4  0
  4 29  4  0
  5 15  4  0
  5 28  1  0
  6 16  4  0
  7 18  4  0
  7 26  4  0
  8 18  1  0
  8 19  4  0
  8 22  4  0
  9 12  4  0
  9 19  4  0
 10 12  4  0
 10 22  4  0
 11 20  4  0
 11 21  4  0
 12 23  1  0
 13 20  4  0
 13 29  4  0
 14 17  4  0
 14 28  4  0
 15 25  2  0
 16 27  4  0
 17 18  4  0
 20 27  1  0
 24 27  4  0
 26 28  4  0
M  END
$$$$

 Created by Python create_sdf_string function

 29 33  0  0  0  0  0  0  0  0999 V2000
    8.8270   -7.0288   18.4251 C   0  0  0  0  0  0  0  0  0  0  0  0
    9.1576   -4.6236   15.8860 O   0  0  0  0  0  0  0  0  0  0  0  0
    9.1509   -5.9108   17.7177 C   0  0  0  0  0  0  0  0  0  0  0  0
    3.6373   -9.5349   16.0582 N   0  0  0  0  0  0  0  0  0  0  0  0
    9.9275   -4.8001   18.0438 N   0  0  0  0  0  0  0  0  0  0  0  0
    8.5908   -5.7425   16.4412 C   0  0  0  0  0  0  0  0  0  0  0  0
   10.5993   -4.8981   21.6068 C   0  0  0  0  0  0  0  0  0  0  0  0
   10.4258   -3.0106   23.0998 C   0  0  0  0  0  0  0  0  0  0  0  0
   10.2148   -3.4364   25.4200 C   0  0  0  0  0  0  0  0  0  0  0  0
    9.7853   -1.1840   24.4927 C   0  0  0  0  0  0  0  0  0  0  0  0
    5.0276   -8.5227   17.5352 C   0  0  0  0  0  0  0  0  0  0  0  0
    9.8187   -2.0895   25.5800 C   0  0  0  0  0  0  0  0  0  0  0  0
    5.6473   -8.7216   15.3158 C   0  0  0  0  0  0  0  0  0  0  0  0
   10.7581   -3.1233   19.4720 N   0  0  0  0  0  0  0  0  0  0  0  0
    9.9571   -4.0573   16.8866 C   0  0  0  0  0  0  0  0  0  0  0  0
    7.6213   -6.5618   16.0087 C   0  0  0  0  0  0  0  0  0  0  0  0
   10.8583   -2.6527   20.7222 C   0  0  0  0  0  0  0  0  0  0  0  0
   10.6412   -3.5089   21.7936 C   0  0  0  0  0  0  0  0  0  0  0  0
   10.4972   -3.8968   24.1589 C   0  0  0  0  0  0  0  0  0  0  0  0
    5.9260   -8.2736   16.5517 C   0  0  0  0  0  0  0  0  0  0  0  0
    3.8816   -9.1166   17.2493 C   0  0  0  0  0  0  0  0  0  0  0  0
   10.1297   -1.6575   23.2324 C   0  0  0  0  0  0  0  0  0  0  0  0
    9.4684   -1.6929   26.7263 F   0  0  0  0  0  0  0  0  0  0  0  0
    7.7963   -7.7906   17.9837 C   0  0  0  0  0  0  0  0  0  0  0  0
   10.5884   -3.0725   16.7902 O   0  0  0  0  0  0  0  0  0  0  0  0
   10.4323   -5.3494   20.3516 C   0  0  0  0  0  0  0  0  0  0  0  0
    7.1156   -7.5454   16.8218 C   0  0  0  0  0  0  0  0  0  0  0  0
   10.3885   -4.4388   19.2773 C   0  0  0  0  0  0  0  0  0  0  0  0
    4.5160   -9.3822   15.0841 C   0  0  0  0  0  0  0  0  0  0  0  0
  1  3  4  0
  1 24  4  0
  2  6  4  0
  2 15  4  0
  3  5  4  0
  3  6  4  0
  4 21  4  0
  4 29  4  0
  5 15  4  0
  5 28  1  0
  6 16  4  0
  7 18  4  0
  7 26  4  0
  8 18  1  0
  8 19  4  0
  8 22  4  0
  9 12  4  0
  9 19  4  0
 10 12  4  0
 10 22  4  0
 11 20  4  0
 11 21  4  0
 12 23  1  0
 13 20  4  0
 13 29  4  0
 14 17  4  0
 14 28  4  0
 15 25  2  0
 16 27  4  0
 17 18  4  0
 20 27  1  0
 24 27  4  0
 26 28  4  0
M  END
$$$$

 Created by Python create_sdf_string function

 29 33  0  0  0  0  0  0  0  0999 V2000
    8.8270   -7.0288   18.4251 C   0  0  0  0  0  0  0  0  0  0  0  0
    9.1576   -4.6236   15.8860 O   0  0  0  0  0  0  0  0  0  0  0  0
    9.1509   -5.9108   17.7177 C   0  0  0  0  0  0  0  0  0  0  0  0
    3.6373   -9.5349   16.0582 N   0  0  0  0  0  0  0  0  0  0  0  0
    9.9275   -4.8001   18.0438 N   0  0  0  0  0  0  0  0  0  0  0  0
    8.5908   -5.7425   16.4412 C   0  0  0  0  0  0  0  0  0  0  0  0
   10.5993   -4.8981   21.6068 C   0  0  0  0  0  0  0  0  0  0  0  0
   10.4258   -3.0106   23.0998 C   0  0  0  0  0  0  0  0  0  0  0  0
   10.2148   -3.4364   25.4200 C   0  0  0  0  0  0  0  0  0  0  0  0
    9.7853   -1.1840   24.4927 C   0  0  0  0  0  0  0  0  0  0  0  0
    5.0276   -8.5227   17.5352 C   0  0  0  0  0  0  0  0  0  0  0  0
    9.8187   -2.0895   25.5800 C   0  0  0  0  0  0  0  0  0  0  0  0
    5.6473   -8.7216   15.3158 C   0  0  0  0  0  0  0  0  0  0  0  0
   10.7581   -3.1233   19.4720 N   0  0  0  0  0  0  0  0  0  0  0  0
    9.9571   -4.0573   16.8866 C   0  0  0  0  0  0  0  0  0  0  0  0
    7.6213   -6.5618   16.0087 C   0  0  0  0  0  0  0  0  0  0  0  0
   10.8583   -2.6527   20.7222 C   0  0  0  0  0  0  0  0  0  0  0  0
   10.6412   -3.5089   21.7936 C   0  0  0  0  0  0  0  0  0  0  0  0
   10.4972   -3.8968   24.1589 C   0  0  0  0  0  0  0  0  0  0  0  0
    5.9260   -8.2736   16.5517 C   0  0  0  0  0  0  0  0  0  0  0  0
    3.8816   -9.1166   17.2493 C   0  0  0  0  0  0  0  0  0  0  0  0
   10.1297   -1.6575   23.2324 C   0  0  0  0  0  0  0  0  0  0  0  0
    9.4684   -1.6929   26.7263 F   0  0  0  0  0  0  0  0  0  0  0  0
    7.7963   -7.7906   17.9837 C   0  0  0  0  0  0  0  0  0  0  0  0
   10.5884   -3.0725   16.7902 O   0  0  0  0  0  0  0  0  0  0  0  0
   10.4323   -5.3494   20.3516 C   0  0  0  0  0  0  0  0  0  0  0  0
    7.1156   -7.5454   16.8218 C   0  0  0  0  0  0  0  0  0  0  0  0
   10.3885   -4.4388   19.2773 C   0  0  0  0  0  0  0  0  0  0  0  0
    4.5160   -9.3822   15.0841 C   0  0  0  0  0  0  0  0  0  0  0  0
  1  3  4  0
  1 24  4  0
  2  6  4  0
  2 15  4  0
  3  5  4  0
  3  6  4  0
  4 21  4  0
  4 29  4  0
  5 15  4  0
  5 28  1  0
  6 16  4  0
  7 18  4  0
  7 26  4  0
  8 18  1  0
  8 19  4  0
  8 22  4  0
  9 12  4  0
  9 19  4  0
 10 12  4  0
 10 22  4  0
 11 20  4  0
 11 21  4  0
 12 23  1  0
 13 20  4  0
 13 29  4  0
 14 17  4  0
 14 28  4  0
 15 25  2  0
 16 27  4  0
 17 18  4  0
 20 27  1  0
 24 27  4  0
 26 28  4  0
M  END
$$$$

 Created by Python create_sdf_string function

 29 33  0  0  0  0  0  0  0  0999 V2000
    8.8270   -7.0288   18.4251 C   0  0  0  0  0  0  0  0  0  0  0  0
    9.1576   -4.6236   15.8860 O   0  0  0  0  0  0  0  0  0  0  0  0
    9.1509   -5.9108   17.7177 C   0  0  0  0  0  0  0  0  0  0  0  0
    3.6373   -9.5349   16.0582 N   0  0  0  0  0  0  0  0  0  0  0  0
    9.9275   -4.8001   18.0438 N   0  0  0  0  0  0  0  0  0  0  0  0
    8.5908   -5.7425   16.4412 C   0  0  0  0  0  0  0  0  0  0  0  0
   10.5993   -4.8981   21.6068 C   0  0  0  0  0  0  0  0  0  0  0  0
   10.4258   -3.0106   23.0998 C   0  0  0  0  0  0  0  0  0  0  0  0
   10.2148   -3.4364   25.4200 C   0  0  0  0  0  0  0  0  0  0  0  0
    9.7853   -1.1840   24.4927 C   0  0  0  0  0  0  0  0  0  0  0  0
    5.0276   -8.5227   17.5352 C   0  0  0  0  0  0  0  0  0  0  0  0
    9.8187   -2.0895   25.5800 C   0  0  0  0  0  0  0  0  0  0  0  0
    5.6473   -8.7216   15.3158 C   0  0  0  0  0  0  0  0  0  0  0  0
   10.7581   -3.1233   19.4720 N   0  0  0  0  0  0  0  0  0  0  0  0
    9.9571   -4.0573   16.8866 C   0  0  0  0  0  0  0  0  0  0  0  0
    7.6213   -6.5618   16.0087 C   0  0  0  0  0  0  0  0  0  0  0  0
   10.8583   -2.6527   20.7222 C   0  0  0  0  0  0  0  0  0  0  0  0
   10.6412   -3.5089   21.7936 C   0  0  0  0  0  0  0  0  0  0  0  0
   10.4972   -3.8968   24.1589 C   0  0  0  0  0  0  0  0  0  0  0  0
    5.9260   -8.2736   16.5517 C   0  0  0  0  0  0  0  0  0  0  0  0
    3.8816   -9.1166   17.2493 C   0  0  0  0  0  0  0  0  0  0  0  0
   10.1297   -1.6575   23.2324 C   0  0  0  0  0  0  0  0  0  0  0  0
    9.4684   -1.6929   26.7263 F   0  0  0  0  0  0  0  0  0  0  0  0
    7.7963   -7.7906   17.9837 C   0  0  0  0  0  0  0  0  0  0  0  0
   10.5884   -3.0725   16.7902 O   0  0  0  0  0  0  0  0  0  0  0  0
   10.4323   -5.3494   20.3516 C   0  0  0  0  0  0  0  0  0  0  0  0
    7.1156   -7.5454   16.8218 C   0  0  0  0  0  0  0  0  0  0  0  0
   10.3885   -4.4388   19.2773 C   0  0  0  0  0  0  0  0  0  0  0  0
    4.5160   -9.3822   15.0841 C   0  0  0  0  0  0  0  0  0  0  0  0
  1  3  4  0
  1 24  4  0
  2  6  4  0
  2 15  4  0
  3  5  4  0
  3  6  4  0
  4 21  4  0
  4 29  4  0
  5 15  4  0
  5 28  1  0
  6 16  4  0
  7 18  4  0
  7 26  4  0
  8 18  1  0
  8 19  4  0
  8 22  4  0
  9 12  4  0
  9 19  4  0
 10 12  4  0
 10 22  4  0
 11 20  4  0
 11 21  4  0
 12 23  1  0
 13 20  4  0
 13 29  4  0
 14 17  4  0
 14 28  4  0
 15 25  2  0
 16 27  4  0
 17 18  4  0
 20 27  1  0
 24 27  4  0
 26 28  4  0
M  END
$$$$

 Created by Python create_sdf_string function

 29 33  0  0  0  0  0  0  0  0999 V2000
    8.8270   -7.0288   18.4251 C   0  0  0  0  0  0  0  0  0  0  0  0
    9.1576   -4.6236   15.8860 O   0  0  0  0  0  0  0  0  0  0  0  0
    9.1509   -5.9108   17.7177 C   0  0  0  0  0  0  0  0  0  0  0  0
    3.6373   -9.5349   16.0582 N   0  0  0  0  0  0  0  0  0  0  0  0
    9.9275   -4.8001   18.0438 N   0  0  0  0  0  0  0  0  0  0  0  0
    8.5908   -5.7425   16.4412 C   0  0  0  0  0  0  0  0  0  0  0  0
   10.5993   -4.8981   21.6068 C   0  0  0  0  0  0  0  0  0  0  0  0
   10.4258   -3.0106   23.0998 C   0  0  0  0  0  0  0  0  0  0  0  0
   10.2148   -3.4364   25.4200 C   0  0  0  0  0  0  0  0  0  0  0  0
    9.7853   -1.1840   24.4927 C   0  0  0  0  0  0  0  0  0  0  0  0
    5.0276   -8.5227   17.5352 C   0  0  0  0  0  0  0  0  0  0  0  0
    9.8187   -2.0895   25.5800 C   0  0  0  0  0  0  0  0  0  0  0  0
    5.6473   -8.7216   15.3158 C   0  0  0  0  0  0  0  0  0  0  0  0
   10.7581   -3.1233   19.4720 N   0  0  0  0  0  0  0  0  0  0  0  0
    9.9571   -4.0573   16.8866 C   0  0  0  0  0  0  0  0  0  0  0  0
    7.6213   -6.5618   16.0087 C   0  0  0  0  0  0  0  0  0  0  0  0
   10.8583   -2.6527   20.7222 C   0  0  0  0  0  0  0  0  0  0  0  0
   10.6412   -3.5089   21.7936 C   0  0  0  0  0  0  0  0  0  0  0  0
   10.4972   -3.8968   24.1589 C   0  0  0  0  0  0  0  0  0  0  0  0
    5.9260   -8.2736   16.5517 C   0  0  0  0  0  0  0  0  0  0  0  0
    3.8816   -9.1166   17.2493 C   0  0  0  0  0  0  0  0  0  0  0  0
   10.1297   -1.6575   23.2324 C   0  0  0  0  0  0  0  0  0  0  0  0
    9.4684   -1.6929   26.7263 F   0  0  0  0  0  0  0  0  0  0  0  0
    7.7963   -7.7906   17.9837 C   0  0  0  0  0  0  0  0  0  0  0  0
   10.5884   -3.0725   16.7902 O   0  0  0  0  0  0  0  0  0  0  0  0
   10.4323   -5.3494   20.3516 C   0  0  0  0  0  0  0  0  0  0  0  0
    7.1156   -7.5454   16.8218 C   0  0  0  0  0  0  0  0  0  0  0  0
   10.3885   -4.4388   19.2773 C   0  0  0  0  0  0  0  0  0  0  0  0
    4.5160   -9.3822   15.0841 C   0  0  0  0  0  0  0  0  0  0  0  0
  1  3  4  0
  1 24  4  0
  2  6  4  0
  2 15  4  0
  3  5  4  0
  3  6  4  0
  4 21  4  0
  4 29  4  0
  5 15  4  0
  5 28  1  0
  6 16  4  0
  7 18  4  0
  7 26  4  0
  8 18  1  0
  8 19  4  0
  8 22  4  0
  9 12  4  0
  9 19  4  0
 10 12  4  0
 10 22  4  0
 11 20  4  0
 11 21  4  0
 12 23  1  0
 13 20  4  0
 13 29  4  0
 14 17  4  0
 14 28  4  0
 15 25  2  0
 16 27  4  0
 17 18  4  0
 20 27  1  0
 24 27  4  0
 26 28  4  0
M  END
$$$$

 Created by Python create_sdf_string function

 29 33  0  0  0  0  0  0  0  0999 V2000
    8.8270   -7.0288   18.4251 C   0  0  0  0  0  0  0  0  0  0  0  0
    9.1576   -4.6236   15.8860 O   0  0  0  0  0  0  0  0  0  0  0  0
    9.1509   -5.9108   17.7177 C   0  0  0  0  0  0  0  0  0  0  0  0
    3.6373   -9.5349   16.0582 N   0  0  0  0  0  0  0  0  0  0  0  0
    9.9275   -4.8001   18.0438 N   0  0  0  0  0  0  0  0  0  0  0  0
    8.5908   -5.7425   16.4412 C   0  0  0  0  0  0  0  0  0  0  0  0
   10.5993   -4.8981   21.6068 C   0  0  0  0  0  0  0  0  0  0  0  0
   10.4258   -3.0106   23.0998 C   0  0  0  0  0  0  0  0  0  0  0  0
   10.2148   -3.4364   25.4200 C   0  0  0  0  0  0  0  0  0  0  0  0
    9.7853   -1.1840   24.4927 C   0  0  0  0  0  0  0  0  0  0  0  0
    5.0276   -8.5227   17.5352 C   0  0  0  0  0  0  0  0  0  0  0  0
    9.8187   -2.0895   25.5800 C   0  0  0  0  0  0  0  0  0  0  0  0
    5.6473   -8.7216   15.3158 C   0  0  0  0  0  0  0  0  0  0  0  0
   10.7581   -3.1233   19.4720 N   0  0  0  0  0  0  0  0  0  0  0  0
    9.9571   -4.0573   16.8866 C   0  0  0  0  0  0  0  0  0  0  0  0
    7.6213   -6.5618   16.0087 C   0  0  0  0  0  0  0  0  0  0  0  0
   10.8583   -2.6527   20.7222 C   0  0  0  0  0  0  0  0  0  0  0  0
   10.6412   -3.5089   21.7936 C   0  0  0  0  0  0  0  0  0  0  0  0
   10.4972   -3.8968   24.1589 C   0  0  0  0  0  0  0  0  0  0  0  0
    5.9260   -8.2736   16.5517 C   0  0  0  0  0  0  0  0  0  0  0  0
    3.8816   -9.1166   17.2493 C   0  0  0  0  0  0  0  0  0  0  0  0
   10.1297   -1.6575   23.2324 C   0  0  0  0  0  0  0  0  0  0  0  0
    9.4684   -1.6929   26.7263 F   0  0  0  0  0  0  0  0  0  0  0  0
    7.7963   -7.7906   17.9837 C   0  0  0  0  0  0  0  0  0  0  0  0
   10.5884   -3.0725   16.7902 O   0  0  0  0  0  0  0  0  0  0  0  0
   10.4323   -5.3494   20.3516 C   0  0  0  0  0  0  0  0  0  0  0  0
    7.1156   -7.5454   16.8218 C   0  0  0  0  0  0  0  0  0  0  0  0
   10.3885   -4.4388   19.2773 C   0  0  0  0  0  0  0  0  0  0  0  0
    4.5160   -9.3822   15.0841 C   0  0  0  0  0  0  0  0  0  0  0  0
  1  3  4  0
  1 24  4  0
  2  6  4  0
  2 15  4  0
  3  5  4  0
  3  6  4  0
  4 21  4  0
  4 29  4  0
  5 15  4  0
  5 28  1  0
  6 16  4  0
  7 18  4  0
  7 26  4  0
  8 18  1  0
  8 19  4  0
  8 22  4  0
  9 12  4  0
  9 19  4  0
 10 12  4  0
 10 22  4  0
 11 20  4  0
 11 21  4  0
 12 23  1  0
 13 20  4  0
 13 29  4  0
 14 17  4  0
 14 28  4  0
 15 25  2  0
 16 27  4  0
 17 18  4  0
 20 27  1  0
 24 27  4  0
 26 28  4  0
M  END
$$$$

 Created by Python create_sdf_string function

 29 33  0  0  0  0  0  0  0  0999 V2000
    8.8270   -7.0288   18.4251 C   0  0  0  0  0  0  0  0  0  0  0  0
    9.1576   -4.6236   15.8860 O   0  0  0  0  0  0  0  0  0  0  0  0
    9.1509   -5.9108   17.7177 C   0  0  0  0  0  0  0  0  0  0  0  0
    3.6373   -9.5349   16.0582 N   0  0  0  0  0  0  0  0  0  0  0  0
    9.9275   -4.8001   18.0438 N   0  0  0  0  0  0  0  0  0  0  0  0
    8.5908   -5.7425   16.4412 C   0  0  0  0  0  0  0  0  0  0  0  0
   10.5993   -4.8981   21.6068 C   0  0  0  0  0  0  0  0  0  0  0  0
   10.4258   -3.0106   23.0998 C   0  0  0  0  0  0  0  0  0  0  0  0
   10.2148   -3.4364   25.4200 C   0  0  0  0  0  0  0  0  0  0  0  0
    9.7853   -1.1840   24.4927 C   0  0  0  0  0  0  0  0  0  0  0  0
    5.0276   -8.5227   17.5352 C   0  0  0  0  0  0  0  0  0  0  0  0
    9.8187   -2.0895   25.5800 C   0  0  0  0  0  0  0  0  0  0  0  0
    5.6473   -8.7216   15.3158 C   0  0  0  0  0  0  0  0  0  0  0  0
   10.7581   -3.1233   19.4720 N   0  0  0  0  0  0  0  0  0  0  0  0
    9.9571   -4.0573   16.8866 C   0  0  0  0  0  0  0  0  0  0  0  0
    7.6213   -6.5618   16.0087 C   0  0  0  0  0  0  0  0  0  0  0  0
   10.8583   -2.6527   20.7222 C   0  0  0  0  0  0  0  0  0  0  0  0
   10.6412   -3.5089   21.7936 C   0  0  0  0  0  0  0  0  0  0  0  0
   10.4972   -3.8968   24.1589 C   0  0  0  0  0  0  0  0  0  0  0  0
    5.9260   -8.2736   16.5517 C   0  0  0  0  0  0  0  0  0  0  0  0
    3.8816   -9.1166   17.2493 C   0  0  0  0  0  0  0  0  0  0  0  0
   10.1297   -1.6575   23.2324 C   0  0  0  0  0  0  0  0  0  0  0  0
    9.4684   -1.6929   26.7263 F   0  0  0  0  0  0  0  0  0  0  0  0
    7.7963   -7.7906   17.9837 C   0  0  0  0  0  0  0  0  0  0  0  0
   10.5884   -3.0725   16.7902 O   0  0  0  0  0  0  0  0  0  0  0  0
   10.4323   -5.3494   20.3516 C   0  0  0  0  0  0  0  0  0  0  0  0
    7.1156   -7.5454   16.8218 C   0  0  0  0  0  0  0  0  0  0  0  0
   10.3885   -4.4388   19.2773 C   0  0  0  0  0  0  0  0  0  0  0  0
    4.5160   -9.3822   15.0841 C   0  0  0  0  0  0  0  0  0  0  0  0
  1  3  4  0
  1 24  4  0
  2  6  4  0
  2 15  4  0
  3  5  4  0
  3  6  4  0
  4 21  4  0
  4 29  4  0
  5 15  4  0
  5 28  1  0
  6 16  4  0
  7 18  4  0
  7 26  4  0
  8 18  1  0
  8 19  4  0
  8 22  4  0
  9 12  4  0
  9 19  4  0
 10 12  4  0
 10 22  4  0
 11 20  4  0
 11 21  4  0
 12 23  1  0
 13 20  4  0
 13 29  4  0
 14 17  4  0
 14 28  4  0
 15 25  2  0
 16 27  4  0
 17 18  4  0
 20 27  1  0
 24 27  4  0
 26 28  4  0
M  END
$$$$

 Created by Python create_sdf_string function

 29 33  0  0  0  0  0  0  0  0999 V2000
    8.8270   -7.0288   18.4251 C   0  0  0  0  0  0  0  0  0  0  0  0
    9.1576   -4.6236   15.8860 O   0  0  0  0  0  0  0  0  0  0  0  0
    9.1509   -5.9108   17.7177 C   0  0  0  0  0  0  0  0  0  0  0  0
    3.6373   -9.5349   16.0582 N   0  0  0  0  0  0  0  0  0  0  0  0
    9.9275   -4.8001   18.0438 N   0  0  0  0  0  0  0  0  0  0  0  0
    8.5908   -5.7425   16.4412 C   0  0  0  0  0  0  0  0  0  0  0  0
   10.5993   -4.8981   21.6068 C   0  0  0  0  0  0  0  0  0  0  0  0
   10.4258   -3.0106   23.0998 C   0  0  0  0  0  0  0  0  0  0  0  0
   10.2148   -3.4364   25.4200 C   0  0  0  0  0  0  0  0  0  0  0  0
    9.7853   -1.1840   24.4927 C   0  0  0  0  0  0  0  0  0  0  0  0
    5.0276   -8.5227   17.5352 C   0  0  0  0  0  0  0  0  0  0  0  0
    9.8187   -2.0895   25.5800 C   0  0  0  0  0  0  0  0  0  0  0  0
    5.6473   -8.7216   15.3158 C   0  0  0  0  0  0  0  0  0  0  0  0
   10.7581   -3.1233   19.4720 N   0  0  0  0  0  0  0  0  0  0  0  0
    9.9571   -4.0573   16.8866 C   0  0  0  0  0  0  0  0  0  0  0  0
    7.6213   -6.5618   16.0087 C   0  0  0  0  0  0  0  0  0  0  0  0
   10.8583   -2.6527   20.7222 C   0  0  0  0  0  0  0  0  0  0  0  0
   10.6412   -3.5089   21.7936 C   0  0  0  0  0  0  0  0  0  0  0  0
   10.4972   -3.8968   24.1589 C   0  0  0  0  0  0  0  0  0  0  0  0
    5.9260   -8.2736   16.5517 C   0  0  0  0  0  0  0  0  0  0  0  0
    3.8816   -9.1166   17.2493 C   0  0  0  0  0  0  0  0  0  0  0  0
   10.1297   -1.6575   23.2324 C   0  0  0  0  0  0  0  0  0  0  0  0
    9.4684   -1.6929   26.7263 F   0  0  0  0  0  0  0  0  0  0  0  0
    7.7963   -7.7906   17.9837 C   0  0  0  0  0  0  0  0  0  0  0  0
   10.5884   -3.0725   16.7902 O   0  0  0  0  0  0  0  0  0  0  0  0
   10.4323   -5.3494   20.3516 C   0  0  0  0  0  0  0  0  0  0  0  0
    7.1156   -7.5454   16.8218 C   0  0  0  0  0  0  0  0  0  0  0  0
   10.3885   -4.4388   19.2773 C   0  0  0  0  0  0  0  0  0  0  0  0
    4.5160   -9.3822   15.0841 C   0  0  0  0  0  0  0  0  0  0  0  0
  1  3  4  0
  1 24  4  0
  2  6  4  0
  2 15  4  0
  3  5  4  0
  3  6  4  0
  4 21  4  0
  4 29  4  0
  5 15  4  0
  5 28  1  0
  6 16  4  0
  7 18  4  0
  7 26  4  0
  8 18  1  0
  8 19  4  0
  8 22  4  0
  9 12  4  0
  9 19  4  0
 10 12  4  0
 10 22  4  0
 11 20  4  0
 11 21  4  0
 12 23  1  0
 13 20  4  0
 13 29  4  0
 14 17  4  0
 14 28  4  0
 15 25  2  0
 16 27  4  0
 17 18  4  0
 20 27  1  0
 24 27  4  0
 26 28  4  0
M  END
$$$$

 Created by Python create_sdf_string function

 29 33  0  0  0  0  0  0  0  0999 V2000
    8.8270   -7.0288   18.4251 C   0  0  0  0  0  0  0  0  0  0  0  0
    9.1576   -4.6236   15.8860 O   0  0  0  0  0  0  0  0  0  0  0  0
    9.1509   -5.9108   17.7177 C   0  0  0  0  0  0  0  0  0  0  0  0
    3.6373   -9.5349   16.0582 N   0  0  0  0  0  0  0  0  0  0  0  0
    9.9275   -4.8001   18.0438 N   0  0  0  0  0  0  0  0  0  0  0  0
    8.5908   -5.7425   16.4412 C   0  0  0  0  0  0  0  0  0  0  0  0
   10.5993   -4.8981   21.6068 C   0  0  0  0  0  0  0  0  0  0  0  0
   10.4258   -3.0106   23.0998 C   0  0  0  0  0  0  0  0  0  0  0  0
   10.2148   -3.4364   25.4200 C   0  0  0  0  0  0  0  0  0  0  0  0
    9.7853   -1.1840   24.4927 C   0  0  0  0  0  0  0  0  0  0  0  0
    5.0276   -8.5227   17.5352 C   0  0  0  0  0  0  0  0  0  0  0  0
    9.8187   -2.0895   25.5800 C   0  0  0  0  0  0  0  0  0  0  0  0
    5.6473   -8.7216   15.3158 C   0  0  0  0  0  0  0  0  0  0  0  0
   10.7581   -3.1233   19.4720 N   0  0  0  0  0  0  0  0  0  0  0  0
    9.9571   -4.0573   16.8866 C   0  0  0  0  0  0  0  0  0  0  0  0
    7.6213   -6.5618   16.0087 C   0  0  0  0  0  0  0  0  0  0  0  0
   10.8583   -2.6527   20.7222 C   0  0  0  0  0  0  0  0  0  0  0  0
   10.6412   -3.5089   21.7936 C   0  0  0  0  0  0  0  0  0  0  0  0
   10.4972   -3.8968   24.1589 C   0  0  0  0  0  0  0  0  0  0  0  0
    5.9260   -8.2736   16.5517 C   0  0  0  0  0  0  0  0  0  0  0  0
    3.8816   -9.1166   17.2493 C   0  0  0  0  0  0  0  0  0  0  0  0
   10.1297   -1.6575   23.2324 C   0  0  0  0  0  0  0  0  0  0  0  0
    9.4684   -1.6929   26.7263 F   0  0  0  0  0  0  0  0  0  0  0  0
    7.7963   -7.7906   17.9837 C   0  0  0  0  0  0  0  0  0  0  0  0
   10.5884   -3.0725   16.7902 O   0  0  0  0  0  0  0  0  0  0  0  0
   10.4323   -5.3494   20.3516 C   0  0  0  0  0  0  0  0  0  0  0  0
    7.1156   -7.5454   16.8218 C   0  0  0  0  0  0  0  0  0  0  0  0
   10.3885   -4.4388   19.2773 C   0  0  0  0  0  0  0  0  0  0  0  0
    4.5160   -9.3822   15.0841 C   0  0  0  0  0  0  0  0  0  0  0  0
  1  3  4  0
  1 24  4  0
  2  6  4  0
  2 15  4  0
  3  5  4  0
  3  6  4  0
  4 21  4  0
  4 29  4  0
  5 15  4  0
  5 28  1  0
  6 16  4  0
  7 18  4  0
  7 26  4  0
  8 18  1  0
  8 19  4  0
  8 22  4  0
  9 12  4  0
  9 19  4  0
 10 12  4  0
 10 22  4  0
 11 20  4  0
 11 21  4  0
 12 23  1  0
 13 20  4  0
 13 29  4  0
 14 17  4  0
 14 28  4  0
 15 25  2  0
 16 27  4  0
 17 18  4  0
 20 27  1  0
 24 27  4  0
 26 28  4  0
M  END
$$$$

 Created by Python create_sdf_string function

 29 33  0  0  0  0  0  0  0  0999 V2000
    8.8270   -7.0288   18.4251 C   0  0  0  0  0  0  0  0  0  0  0  0
    9.1576   -4.6236   15.8860 O   0  0  0  0  0  0  0  0  0  0  0  0
    9.1509   -5.9108   17.7177 C   0  0  0  0  0  0  0  0  0  0  0  0
    3.6373   -9.5349   16.0582 N   0  0  0  0  0  0  0  0  0  0  0  0
    9.9275   -4.8001   18.0438 N   0  0  0  0  0  0  0  0  0  0  0  0
    8.5908   -5.7425   16.4412 C   0  0  0  0  0  0  0  0  0  0  0  0
   10.5993   -4.8981   21.6068 C   0  0  0  0  0  0  0  0  0  0  0  0
   10.4258   -3.0106   23.0998 C   0  0  0  0  0  0  0  0  0  0  0  0
   10.2148   -3.4364   25.4200 C   0  0  0  0  0  0  0  0  0  0  0  0
    9.7853   -1.1840   24.4927 C   0  0  0  0  0  0  0  0  0  0  0  0
    5.0276   -8.5227   17.5352 C   0  0  0  0  0  0  0  0  0  0  0  0
    9.8187   -2.0895   25.5800 C   0  0  0  0  0  0  0  0  0  0  0  0
    5.6473   -8.7216   15.3158 C   0  0  0  0  0  0  0  0  0  0  0  0
   10.7581   -3.1233   19.4720 N   0  0  0  0  0  0  0  0  0  0  0  0
    9.9571   -4.0573   16.8866 C   0  0  0  0  0  0  0  0  0  0  0  0
    7.6213   -6.5618   16.0087 C   0  0  0  0  0  0  0  0  0  0  0  0
   10.8583   -2.6527   20.7222 C   0  0  0  0  0  0  0  0  0  0  0  0
   10.6412   -3.5089   21.7936 C   0  0  0  0  0  0  0  0  0  0  0  0
   10.4972   -3.8968   24.1589 C   0  0  0  0  0  0  0  0  0  0  0  0
    5.9260   -8.2736   16.5517 C   0  0  0  0  0  0  0  0  0  0  0  0
    3.8816   -9.1166   17.2493 C   0  0  0  0  0  0  0  0  0  0  0  0
   10.1297   -1.6575   23.2324 C   0  0  0  0  0  0  0  0  0  0  0  0
    9.4684   -1.6929   26.7263 F   0  0  0  0  0  0  0  0  0  0  0  0
    7.7963   -7.7906   17.9837 C   0  0  0  0  0  0  0  0  0  0  0  0
   10.5884   -3.0725   16.7902 O   0  0  0  0  0  0  0  0  0  0  0  0
   10.4323   -5.3494   20.3516 C   0  0  0  0  0  0  0  0  0  0  0  0
    7.1156   -7.5454   16.8218 C   0  0  0  0  0  0  0  0  0  0  0  0
   10.3885   -4.4388   19.2773 C   0  0  0  0  0  0  0  0  0  0  0  0
    4.5160   -9.3822   15.0841 C   0  0  0  0  0  0  0  0  0  0  0  0
  1  3  4  0
  1 24  4  0
  2  6  4  0
  2 15  4  0
  3  5  4  0
  3  6  4  0
  4 21  4  0
  4 29  4  0
  5 15  4  0
  5 28  1  0
  6 16  4  0
  7 18  4  0
  7 26  4  0
  8 18  1  0
  8 19  4  0
  8 22  4  0
  9 12  4  0
  9 19  4  0
 10 12  4  0
 10 22  4  0
 11 20  4  0
 11 21  4  0
 12 23  1  0
 13 20  4  0
 13 29  4  0
 14 17  4  0
 14 28  4  0
 15 25  2  0
 16 27  4  0
 17 18  4  0
 20 27  1  0
 24 27  4  0
 26 28  4  0
M  END
$$$$

 Created by Python create_sdf_string function

 29 33  0  0  0  0  0  0  0  0999 V2000
    8.8270   -7.0288   18.4251 C   0  0  0  0  0  0  0  0  0  0  0  0
    9.1576   -4.6236   15.8860 O   0  0  0  0  0  0  0  0  0  0  0  0
    9.1509   -5.9108   17.7177 C   0  0  0  0  0  0  0  0  0  0  0  0
    3.6373   -9.5349   16.0582 N   0  0  0  0  0  0  0  0  0  0  0  0
    9.9275   -4.8001   18.0438 N   0  0  0  0  0  0  0  0  0  0  0  0
    8.5908   -5.7425   16.4412 C   0  0  0  0  0  0  0  0  0  0  0  0
   10.5993   -4.8981   21.6068 C   0  0  0  0  0  0  0  0  0  0  0  0
   10.4258   -3.0106   23.0998 C   0  0  0  0  0  0  0  0  0  0  0  0
   10.2148   -3.4364   25.4200 C   0  0  0  0  0  0  0  0  0  0  0  0
    9.7853   -1.1840   24.4927 C   0  0  0  0  0  0  0  0  0  0  0  0
    5.0276   -8.5227   17.5352 C   0  0  0  0  0  0  0  0  0  0  0  0
    9.8187   -2.0895   25.5800 C   0  0  0  0  0  0  0  0  0  0  0  0
    5.6473   -8.7216   15.3158 C   0  0  0  0  0  0  0  0  0  0  0  0
   10.7581   -3.1233   19.4720 N   0  0  0  0  0  0  0  0  0  0  0  0
    9.9571   -4.0573   16.8866 C   0  0  0  0  0  0  0  0  0  0  0  0
    7.6213   -6.5618   16.0087 C   0  0  0  0  0  0  0  0  0  0  0  0
   10.8583   -2.6527   20.7222 C   0  0  0  0  0  0  0  0  0  0  0  0
   10.6412   -3.5089   21.7936 C   0  0  0  0  0  0  0  0  0  0  0  0
   10.4972   -3.8968   24.1589 C   0  0  0  0  0  0  0  0  0  0  0  0
    5.9260   -8.2736   16.5517 C   0  0  0  0  0  0  0  0  0  0  0  0
    3.8816   -9.1166   17.2493 C   0  0  0  0  0  0  0  0  0  0  0  0
   10.1297   -1.6575   23.2324 C   0  0  0  0  0  0  0  0  0  0  0  0
    9.4684   -1.6929   26.7263 F   0  0  0  0  0  0  0  0  0  0  0  0
    7.7963   -7.7906   17.9837 C   0  0  0  0  0  0  0  0  0  0  0  0
   10.5884   -3.0725   16.7902 O   0  0  0  0  0  0  0  0  0  0  0  0
   10.4323   -5.3494   20.3516 C   0  0  0  0  0  0  0  0  0  0  0  0
    7.1156   -7.5454   16.8218 C   0  0  0  0  0  0  0  0  0  0  0  0
   10.3885   -4.4388   19.2773 C   0  0  0  0  0  0  0  0  0  0  0  0
    4.5160   -9.3822   15.0841 C   0  0  0  0  0  0  0  0  0  0  0  0
  1  3  4  0
  1 24  4  0
  2  6  4  0
  2 15  4  0
  3  5  4  0
  3  6  4  0
  4 21  4  0
  4 29  4  0
  5 15  4  0
  5 28  1  0
  6 16  4  0
  7 18  4  0
  7 26  4  0
  8 18  1  0
  8 19  4  0
  8 22  4  0
  9 12  4  0
  9 19  4  0
 10 12  4  0
 10 22  4  0
 11 20  4  0
 11 21  4  0
 12 23  1  0
 13 20  4  0
 13 29  4  0
 14 17  4  0
 14 28  4  0
 15 25  2  0
 16 27  4  0
 17 18  4  0
 20 27  1  0
 24 27  4  0
 26 28  4  0
M  END
$$$$

 Created by Python create_sdf_string function

 29 33  0  0  0  0  0  0  0  0999 V2000
    8.8270   -7.0288   18.4251 C   0  0  0  0  0  0  0  0  0  0  0  0
    9.1576   -4.6236   15.8860 O   0  0  0  0  0  0  0  0  0  0  0  0
    9.1509   -5.9108   17.7177 C   0  0  0  0  0  0  0  0  0  0  0  0
    3.6373   -9.5349   16.0582 N   0  0  0  0  0  0  0  0  0  0  0  0
    9.9275   -4.8001   18.0438 N   0  0  0  0  0  0  0  0  0  0  0  0
    8.5908   -5.7425   16.4412 C   0  0  0  0  0  0  0  0  0  0  0  0
   10.5993   -4.8981   21.6068 C   0  0  0  0  0  0  0  0  0  0  0  0
   10.4258   -3.0106   23.0998 C   0  0  0  0  0  0  0  0  0  0  0  0
   10.2148   -3.4364   25.4200 C   0  0  0  0  0  0  0  0  0  0  0  0
    9.7853   -1.1840   24.4927 C   0  0  0  0  0  0  0  0  0  0  0  0
    5.0276   -8.5227   17.5352 C   0  0  0  0  0  0  0  0  0  0  0  0
    9.8187   -2.0895   25.5800 C   0  0  0  0  0  0  0  0  0  0  0  0
    5.6473   -8.7216   15.3158 C   0  0  0  0  0  0  0  0  0  0  0  0
   10.7581   -3.1233   19.4720 N   0  0  0  0  0  0  0  0  0  0  0  0
    9.9571   -4.0573   16.8866 C   0  0  0  0  0  0  0  0  0  0  0  0
    7.6213   -6.5618   16.0087 C   0  0  0  0  0  0  0  0  0  0  0  0
   10.8583   -2.6527   20.7222 C   0  0  0  0  0  0  0  0  0  0  0  0
   10.6412   -3.5089   21.7936 C   0  0  0  0  0  0  0  0  0  0  0  0
   10.4972   -3.8968   24.1589 C   0  0  0  0  0  0  0  0  0  0  0  0
    5.9260   -8.2736   16.5517 C   0  0  0  0  0  0  0  0  0  0  0  0
    3.8816   -9.1166   17.2493 C   0  0  0  0  0  0  0  0  0  0  0  0
   10.1297   -1.6575   23.2324 C   0  0  0  0  0  0  0  0  0  0  0  0
    9.4684   -1.6929   26.7263 F   0  0  0  0  0  0  0  0  0  0  0  0
    7.7963   -7.7906   17.9837 C   0  0  0  0  0  0  0  0  0  0  0  0
   10.5884   -3.0725   16.7902 O   0  0  0  0  0  0  0  0  0  0  0  0
   10.4323   -5.3494   20.3516 C   0  0  0  0  0  0  0  0  0  0  0  0
    7.1156   -7.5454   16.8218 C   0  0  0  0  0  0  0  0  0  0  0  0
   10.3885   -4.4388   19.2773 C   0  0  0  0  0  0  0  0  0  0  0  0
    4.5160   -9.3822   15.0841 C   0  0  0  0  0  0  0  0  0  0  0  0
  1  3  4  0
  1 24  4  0
  2  6  4  0
  2 15  4  0
  3  5  4  0
  3  6  4  0
  4 21  4  0
  4 29  4  0
  5 15  4  0
  5 28  1  0
  6 16  4  0
  7 18  4  0
  7 26  4  0
  8 18  1  0
  8 19  4  0
  8 22  4  0
  9 12  4  0
  9 19  4  0
 10 12  4  0
 10 22  4  0
 11 20  4  0
 11 21  4  0
 12 23  1  0
 13 20  4  0
 13 29  4  0
 14 17  4  0
 14 28  4  0
 15 25  2  0
 16 27  4  0
 17 18  4  0
 20 27  1  0
 24 27  4  0
 26 28  4  0
M  END
$$$$

 Created by Python create_sdf_string function

 29 33  0  0  0  0  0  0  0  0999 V2000
    8.8270   -7.0288   18.4251 C   0  0  0  0  0  0  0  0  0  0  0  0
    9.1576   -4.6236   15.8860 O   0  0  0  0  0  0  0  0  0  0  0  0
    9.1509   -5.9108   17.7177 C   0  0  0  0  0  0  0  0  0  0  0  0
    3.6373   -9.5349   16.0582 N   0  0  0  0  0  0  0  0  0  0  0  0
    9.9275   -4.8001   18.0438 N   0  0  0  0  0  0  0  0  0  0  0  0
    8.5908   -5.7425   16.4412 C   0  0  0  0  0  0  0  0  0  0  0  0
   10.5993   -4.8981   21.6068 C   0  0  0  0  0  0  0  0  0  0  0  0
   10.4258   -3.0106   23.0998 C   0  0  0  0  0  0  0  0  0  0  0  0
   10.2148   -3.4364   25.4200 C   0  0  0  0  0  0  0  0  0  0  0  0
    9.7853   -1.1840   24.4927 C   0  0  0  0  0  0  0  0  0  0  0  0
    5.0276   -8.5227   17.5352 C   0  0  0  0  0  0  0  0  0  0  0  0
    9.8187   -2.0895   25.5800 C   0  0  0  0  0  0  0  0  0  0  0  0
    5.6473   -8.7216   15.3158 C   0  0  0  0  0  0  0  0  0  0  0  0
   10.7581   -3.1233   19.4720 N   0  0  0  0  0  0  0  0  0  0  0  0
    9.9571   -4.0573   16.8866 C   0  0  0  0  0  0  0  0  0  0  0  0
    7.6213   -6.5618   16.0087 C   0  0  0  0  0  0  0  0  0  0  0  0
   10.8583   -2.6527   20.7222 C   0  0  0  0  0  0  0  0  0  0  0  0
   10.6412   -3.5089   21.7936 C   0  0  0  0  0  0  0  0  0  0  0  0
   10.4972   -3.8968   24.1589 C   0  0  0  0  0  0  0  0  0  0  0  0
    5.9260   -8.2736   16.5517 C   0  0  0  0  0  0  0  0  0  0  0  0
    3.8816   -9.1166   17.2493 C   0  0  0  0  0  0  0  0  0  0  0  0
   10.1297   -1.6575   23.2324 C   0  0  0  0  0  0  0  0  0  0  0  0
    9.4684   -1.6929   26.7263 F   0  0  0  0  0  0  0  0  0  0  0  0
    7.7963   -7.7906   17.9837 C   0  0  0  0  0  0  0  0  0  0  0  0
   10.5884   -3.0725   16.7902 O   0  0  0  0  0  0  0  0  0  0  0  0
   10.4323   -5.3494   20.3516 C   0  0  0  0  0  0  0  0  0  0  0  0
    7.1156   -7.5454   16.8218 C   0  0  0  0  0  0  0  0  0  0  0  0
   10.3885   -4.4388   19.2773 C   0  0  0  0  0  0  0  0  0  0  0  0
    4.5160   -9.3822   15.0841 C   0  0  0  0  0  0  0  0  0  0  0  0
  1  3  4  0
  1 24  4  0
  2  6  4  0
  2 15  4  0
  3  5  4  0
  3  6  4  0
  4 21  4  0
  4 29  4  0
  5 15  4  0
  5 28  1  0
  6 16  4  0
  7 18  4  0
  7 26  4  0
  8 18  1  0
  8 19  4  0
  8 22  4  0
  9 12  4  0
  9 19  4  0
 10 12  4  0
 10 22  4  0
 11 20  4  0
 11 21  4  0
 12 23  1  0
 13 20  4  0
 13 29  4  0
 14 17  4  0
 14 28  4  0
 15 25  2  0
 16 27  4  0
 17 18  4  0
 20 27  1  0
 24 27  4  0
 26 28  4  0
M  END
$$$$

 Created by Python create_sdf_string function

 29 33  0  0  0  0  0  0  0  0999 V2000
    8.8270   -7.0288   18.4251 C   0  0  0  0  0  0  0  0  0  0  0  0
    9.1576   -4.6236   15.8860 O   0  0  0  0  0  0  0  0  0  0  0  0
    9.1509   -5.9108   17.7177 C   0  0  0  0  0  0  0  0  0  0  0  0
    3.6373   -9.5349   16.0582 N   0  0  0  0  0  0  0  0  0  0  0  0
    9.9275   -4.8001   18.0438 N   0  0  0  0  0  0  0  0  0  0  0  0
    8.5908   -5.7425   16.4412 C   0  0  0  0  0  0  0  0  0  0  0  0
   10.5993   -4.8981   21.6068 C   0  0  0  0  0  0  0  0  0  0  0  0
   10.4258   -3.0106   23.0998 C   0  0  0  0  0  0  0  0  0  0  0  0
   10.2148   -3.4364   25.4200 C   0  0  0  0  0  0  0  0  0  0  0  0
    9.7853   -1.1840   24.4927 C   0  0  0  0  0  0  0  0  0  0  0  0
    5.0276   -8.5227   17.5352 C   0  0  0  0  0  0  0  0  0  0  0  0
    9.8187   -2.0895   25.5800 C   0  0  0  0  0  0  0  0  0  0  0  0
    5.6473   -8.7216   15.3158 C   0  0  0  0  0  0  0  0  0  0  0  0
   10.7581   -3.1233   19.4720 N   0  0  0  0  0  0  0  0  0  0  0  0
    9.9571   -4.0573   16.8866 C   0  0  0  0  0  0  0  0  0  0  0  0
    7.6213   -6.5618   16.0087 C   0  0  0  0  0  0  0  0  0  0  0  0
   10.8583   -2.6527   20.7222 C   0  0  0  0  0  0  0  0  0  0  0  0
   10.6412   -3.5089   21.7936 C   0  0  0  0  0  0  0  0  0  0  0  0
   10.4972   -3.8968   24.1589 C   0  0  0  0  0  0  0  0  0  0  0  0
    5.9260   -8.2736   16.5517 C   0  0  0  0  0  0  0  0  0  0  0  0
    3.8816   -9.1166   17.2493 C   0  0  0  0  0  0  0  0  0  0  0  0
   10.1297   -1.6575   23.2324 C   0  0  0  0  0  0  0  0  0  0  0  0
    9.4684   -1.6929   26.7263 F   0  0  0  0  0  0  0  0  0  0  0  0
    7.7963   -7.7906   17.9837 C   0  0  0  0  0  0  0  0  0  0  0  0
   10.5884   -3.0725   16.7902 O   0  0  0  0  0  0  0  0  0  0  0  0
   10.4323   -5.3494   20.3516 C   0  0  0  0  0  0  0  0  0  0  0  0
    7.1156   -7.5454   16.8218 C   0  0  0  0  0  0  0  0  0  0  0  0
   10.3885   -4.4388   19.2773 C   0  0  0  0  0  0  0  0  0  0  0  0
    4.5160   -9.3822   15.0841 C   0  0  0  0  0  0  0  0  0  0  0  0
  1  3  4  0
  1 24  4  0
  2  6  4  0
  2 15  4  0
  3  5  4  0
  3  6  4  0
  4 21  4  0
  4 29  4  0
  5 15  4  0
  5 28  1  0
  6 16  4  0
  7 18  4  0
  7 26  4  0
  8 18  1  0
  8 19  4  0
  8 22  4  0
  9 12  4  0
  9 19  4  0
 10 12  4  0
 10 22  4  0
 11 20  4  0
 11 21  4  0
 12 23  1  0
 13 20  4  0
 13 29  4  0
 14 17  4  0
 14 28  4  0
 15 25  2  0
 16 27  4  0
 17 18  4  0
 20 27  1  0
 24 27  4  0
 26 28  4  0
M  END
$$$$

 Created by Python create_sdf_string function

 29 33  0  0  0  0  0  0  0  0999 V2000
    8.8270   -7.0288   18.4251 C   0  0  0  0  0  0  0  0  0  0  0  0
    9.1576   -4.6236   15.8860 O   0  0  0  0  0  0  0  0  0  0  0  0
    9.1509   -5.9108   17.7177 C   0  0  0  0  0  0  0  0  0  0  0  0
    3.6373   -9.5349   16.0582 N   0  0  0  0  0  0  0  0  0  0  0  0
    9.9275   -4.8001   18.0438 N   0  0  0  0  0  0  0  0  0  0  0  0
    8.5908   -5.7425   16.4412 C   0  0  0  0  0  0  0  0  0  0  0  0
   10.5993   -4.8981   21.6068 C   0  0  0  0  0  0  0  0  0  0  0  0
   10.4258   -3.0106   23.0998 C   0  0  0  0  0  0  0  0  0  0  0  0
   10.2148   -3.4364   25.4200 C   0  0  0  0  0  0  0  0  0  0  0  0
    9.7853   -1.1840   24.4927 C   0  0  0  0  0  0  0  0  0  0  0  0
    5.0276   -8.5227   17.5352 C   0  0  0  0  0  0  0  0  0  0  0  0
    9.8187   -2.0895   25.5800 C   0  0  0  0  0  0  0  0  0  0  0  0
    5.6473   -8.7216   15.3158 C   0  0  0  0  0  0  0  0  0  0  0  0
   10.7581   -3.1233   19.4720 N   0  0  0  0  0  0  0  0  0  0  0  0
    9.9571   -4.0573   16.8866 C   0  0  0  0  0  0  0  0  0  0  0  0
    7.6213   -6.5618   16.0087 C   0  0  0  0  0  0  0  0  0  0  0  0
   10.8583   -2.6527   20.7222 C   0  0  0  0  0  0  0  0  0  0  0  0
   10.6412   -3.5089   21.7936 C   0  0  0  0  0  0  0  0  0  0  0  0
   10.4972   -3.8968   24.1589 C   0  0  0  0  0  0  0  0  0  0  0  0
    5.9260   -8.2736   16.5517 C   0  0  0  0  0  0  0  0  0  0  0  0
    3.8816   -9.1166   17.2493 C   0  0  0  0  0  0  0  0  0  0  0  0
   10.1297   -1.6575   23.2324 C   0  0  0  0  0  0  0  0  0  0  0  0
    9.4684   -1.6929   26.7263 F   0  0  0  0  0  0  0  0  0  0  0  0
    7.7963   -7.7906   17.9837 C   0  0  0  0  0  0  0  0  0  0  0  0
   10.5884   -3.0725   16.7902 O   0  0  0  0  0  0  0  0  0  0  0  0
   10.4323   -5.3494   20.3516 C   0  0  0  0  0  0  0  0  0  0  0  0
    7.1156   -7.5454   16.8218 C   0  0  0  0  0  0  0  0  0  0  0  0
   10.3885   -4.4388   19.2773 C   0  0  0  0  0  0  0  0  0  0  0  0
    4.5160   -9.3822   15.0841 C   0  0  0  0  0  0  0  0  0  0  0  0
  1  3  4  0
  1 24  4  0
  2  6  4  0
  2 15  4  0
  3  5  4  0
  3  6  4  0
  4 21  4  0
  4 29  4  0
  5 15  4  0
  5 28  1  0
  6 16  4  0
  7 18  4  0
  7 26  4  0
  8 18  1  0
  8 19  4  0
  8 22  4  0
  9 12  4  0
  9 19  4  0
 10 12  4  0
 10 22  4  0
 11 20  4  0
 11 21  4  0
 12 23  1  0
 13 20  4  0
 13 29  4  0
 14 17  4  0
 14 28  4  0
 15 25  2  0
 16 27  4  0
 17 18  4  0
 20 27  1  0
 24 27  4  0
 26 28  4  0
M  END
$$$$

 Created by Python create_sdf_string function

 29 33  0  0  0  0  0  0  0  0999 V2000
    8.8270   -7.0288   18.4251 C   0  0  0  0  0  0  0  0  0  0  0  0
    9.1576   -4.6236   15.8860 O   0  0  0  0  0  0  0  0  0  0  0  0
    9.1509   -5.9108   17.7177 C   0  0  0  0  0  0  0  0  0  0  0  0
    3.6373   -9.5349   16.0582 N   0  0  0  0  0  0  0  0  0  0  0  0
    9.9275   -4.8001   18.0438 N   0  0  0  0  0  0  0  0  0  0  0  0
    8.5908   -5.7425   16.4412 C   0  0  0  0  0  0  0  0  0  0  0  0
   10.5993   -4.8981   21.6068 C   0  0  0  0  0  0  0  0  0  0  0  0
   10.4258   -3.0106   23.0998 C   0  0  0  0  0  0  0  0  0  0  0  0
   10.2148   -3.4364   25.4200 C   0  0  0  0  0  0  0  0  0  0  0  0
    9.7853   -1.1840   24.4927 C   0  0  0  0  0  0  0  0  0  0  0  0
    5.0276   -8.5227   17.5352 C   0  0  0  0  0  0  0  0  0  0  0  0
    9.8187   -2.0895   25.5800 C   0  0  0  0  0  0  0  0  0  0  0  0
    5.6473   -8.7216   15.3158 C   0  0  0  0  0  0  0  0  0  0  0  0
   10.7581   -3.1233   19.4720 N   0  0  0  0  0  0  0  0  0  0  0  0
    9.9571   -4.0573   16.8866 C   0  0  0  0  0  0  0  0  0  0  0  0
    7.6213   -6.5618   16.0087 C   0  0  0  0  0  0  0  0  0  0  0  0
   10.8583   -2.6527   20.7222 C   0  0  0  0  0  0  0  0  0  0  0  0
   10.6412   -3.5089   21.7936 C   0  0  0  0  0  0  0  0  0  0  0  0
   10.4972   -3.8968   24.1589 C   0  0  0  0  0  0  0  0  0  0  0  0
    5.9260   -8.2736   16.5517 C   0  0  0  0  0  0  0  0  0  0  0  0
    3.8816   -9.1166   17.2493 C   0  0  0  0  0  0  0  0  0  0  0  0
   10.1297   -1.6575   23.2324 C   0  0  0  0  0  0  0  0  0  0  0  0
    9.4684   -1.6929   26.7263 F   0  0  0  0  0  0  0  0  0  0  0  0
    7.7963   -7.7906   17.9837 C   0  0  0  0  0  0  0  0  0  0  0  0
   10.5884   -3.0725   16.7902 O   0  0  0  0  0  0  0  0  0  0  0  0
   10.4323   -5.3494   20.3516 C   0  0  0  0  0  0  0  0  0  0  0  0
    7.1156   -7.5454   16.8218 C   0  0  0  0  0  0  0  0  0  0  0  0
   10.3885   -4.4388   19.2773 C   0  0  0  0  0  0  0  0  0  0  0  0
    4.5160   -9.3822   15.0841 C   0  0  0  0  0  0  0  0  0  0  0  0
  1  3  4  0
  1 24  4  0
  2  6  4  0
  2 15  4  0
  3  5  4  0
  3  6  4  0
  4 21  4  0
  4 29  4  0
  5 15  4  0
  5 28  1  0
  6 16  4  0
  7 18  4  0
  7 26  4  0
  8 18  1  0
  8 19  4  0
  8 22  4  0
  9 12  4  0
  9 19  4  0
 10 12  4  0
 10 22  4  0
 11 20  4  0
 11 21  4  0
 12 23  1  0
 13 20  4  0
 13 29  4  0
 14 17  4  0
 14 28  4  0
 15 25  2  0
 16 27  4  0
 17 18  4  0
 20 27  1  0
 24 27  4  0
 26 28  4  0
M  END
$$$$

 Created by Python create_sdf_string function

 29 33  0  0  0  0  0  0  0  0999 V2000
    8.8270   -7.0288   18.4251 C   0  0  0  0  0  0  0  0  0  0  0  0
    9.1576   -4.6236   15.8860 O   0  0  0  0  0  0  0  0  0  0  0  0
    9.1509   -5.9108   17.7177 C   0  0  0  0  0  0  0  0  0  0  0  0
    3.6373   -9.5349   16.0582 N   0  0  0  0  0  0  0  0  0  0  0  0
    9.9275   -4.8001   18.0438 N   0  0  0  0  0  0  0  0  0  0  0  0
    8.5908   -5.7425   16.4412 C   0  0  0  0  0  0  0  0  0  0  0  0
   10.5993   -4.8981   21.6068 C   0  0  0  0  0  0  0  0  0  0  0  0
   10.4258   -3.0106   23.0998 C   0  0  0  0  0  0  0  0  0  0  0  0
   10.2148   -3.4364   25.4200 C   0  0  0  0  0  0  0  0  0  0  0  0
    9.7853   -1.1840   24.4927 C   0  0  0  0  0  0  0  0  0  0  0  0
    5.0276   -8.5227   17.5352 C   0  0  0  0  0  0  0  0  0  0  0  0
    9.8187   -2.0895   25.5800 C   0  0  0  0  0  0  0  0  0  0  0  0
    5.6473   -8.7216   15.3158 C   0  0  0  0  0  0  0  0  0  0  0  0
   10.7581   -3.1233   19.4720 N   0  0  0  0  0  0  0  0  0  0  0  0
    9.9571   -4.0573   16.8866 C   0  0  0  0  0  0  0  0  0  0  0  0
    7.6213   -6.5618   16.0087 C   0  0  0  0  0  0  0  0  0  0  0  0
   10.8583   -2.6527   20.7222 C   0  0  0  0  0  0  0  0  0  0  0  0
   10.6412   -3.5089   21.7936 C   0  0  0  0  0  0  0  0  0  0  0  0
   10.4972   -3.8968   24.1589 C   0  0  0  0  0  0  0  0  0  0  0  0
    5.9260   -8.2736   16.5517 C   0  0  0  0  0  0  0  0  0  0  0  0
    3.8816   -9.1166   17.2493 C   0  0  0  0  0  0  0  0  0  0  0  0
   10.1297   -1.6575   23.2324 C   0  0  0  0  0  0  0  0  0  0  0  0
    9.4684   -1.6929   26.7263 F   0  0  0  0  0  0  0  0  0  0  0  0
    7.7963   -7.7906   17.9837 C   0  0  0  0  0  0  0  0  0  0  0  0
   10.5884   -3.0725   16.7902 O   0  0  0  0  0  0  0  0  0  0  0  0
   10.4323   -5.3494   20.3516 C   0  0  0  0  0  0  0  0  0  0  0  0
    7.1156   -7.5454   16.8218 C   0  0  0  0  0  0  0  0  0  0  0  0
   10.3885   -4.4388   19.2773 C   0  0  0  0  0  0  0  0  0  0  0  0
    4.5160   -9.3822   15.0841 C   0  0  0  0  0  0  0  0  0  0  0  0
  1  3  4  0
  1 24  4  0
  2  6  4  0
  2 15  4  0
  3  5  4  0
  3  6  4  0
  4 21  4  0
  4 29  4  0
  5 15  4  0
  5 28  1  0
  6 16  4  0
  7 18  4  0
  7 26  4  0
  8 18  1  0
  8 19  4  0
  8 22  4  0
  9 12  4  0
  9 19  4  0
 10 12  4  0
 10 22  4  0
 11 20  4  0
 11 21  4  0
 12 23  1  0
 13 20  4  0
 13 29  4  0
 14 17  4  0
 14 28  4  0
 15 25  2  0
 16 27  4  0
 17 18  4  0
 20 27  1  0
 24 27  4  0
 26 28  4  0
M  END
$$$$

 Created by Python create_sdf_string function

 29 33  0  0  0  0  0  0  0  0999 V2000
    8.8270   -7.0288   18.4251 C   0  0  0  0  0  0  0  0  0  0  0  0
    9.1576   -4.6236   15.8860 O   0  0  0  0  0  0  0  0  0  0  0  0
    9.1509   -5.9108   17.7177 C   0  0  0  0  0  0  0  0  0  0  0  0
    3.6373   -9.5349   16.0582 N   0  0  0  0  0  0  0  0  0  0  0  0
    9.9275   -4.8001   18.0438 N   0  0  0  0  0  0  0  0  0  0  0  0
    8.5908   -5.7425   16.4412 C   0  0  0  0  0  0  0  0  0  0  0  0
   10.5993   -4.8981   21.6068 C   0  0  0  0  0  0  0  0  0  0  0  0
   10.4258   -3.0106   23.0998 C   0  0  0  0  0  0  0  0  0  0  0  0
   10.2148   -3.4364   25.4200 C   0  0  0  0  0  0  0  0  0  0  0  0
    9.7853   -1.1840   24.4927 C   0  0  0  0  0  0  0  0  0  0  0  0
    5.0276   -8.5227   17.5352 C   0  0  0  0  0  0  0  0  0  0  0  0
    9.8187   -2.0895   25.5800 C   0  0  0  0  0  0  0  0  0  0  0  0
    5.6473   -8.7216   15.3158 C   0  0  0  0  0  0  0  0  0  0  0  0
   10.7581   -3.1233   19.4720 N   0  0  0  0  0  0  0  0  0  0  0  0
    9.9571   -4.0573   16.8866 C   0  0  0  0  0  0  0  0  0  0  0  0
    7.6213   -6.5618   16.0087 C   0  0  0  0  0  0  0  0  0  0  0  0
   10.8583   -2.6527   20.7222 C   0  0  0  0  0  0  0  0  0  0  0  0
   10.6412   -3.5089   21.7936 C   0  0  0  0  0  0  0  0  0  0  0  0
   10.4972   -3.8968   24.1589 C   0  0  0  0  0  0  0  0  0  0  0  0
    5.9260   -8.2736   16.5517 C   0  0  0  0  0  0  0  0  0  0  0  0
    3.8816   -9.1166   17.2493 C   0  0  0  0  0  0  0  0  0  0  0  0
   10.1297   -1.6575   23.2324 C   0  0  0  0  0  0  0  0  0  0  0  0
    9.4684   -1.6929   26.7263 F   0  0  0  0  0  0  0  0  0  0  0  0
    7.7963   -7.7906   17.9837 C   0  0  0  0  0  0  0  0  0  0  0  0
   10.5884   -3.0725   16.7902 O   0  0  0  0  0  0  0  0  0  0  0  0
   10.4323   -5.3494   20.3516 C   0  0  0  0  0  0  0  0  0  0  0  0
    7.1156   -7.5454   16.8218 C   0  0  0  0  0  0  0  0  0  0  0  0
   10.3885   -4.4388   19.2773 C   0  0  0  0  0  0  0  0  0  0  0  0
    4.5160   -9.3822   15.0841 C   0  0  0  0  0  0  0  0  0  0  0  0
  1  3  4  0
  1 24  4  0
  2  6  4  0
  2 15  4  0
  3  5  4  0
  3  6  4  0
  4 21  4  0
  4 29  4  0
  5 15  4  0
  5 28  1  0
  6 16  4  0
  7 18  4  0
  7 26  4  0
  8 18  1  0
  8 19  4  0
  8 22  4  0
  9 12  4  0
  9 19  4  0
 10 12  4  0
 10 22  4  0
 11 20  4  0
 11 21  4  0
 12 23  1  0
 13 20  4  0
 13 29  4  0
 14 17  4  0
 14 28  4  0
 15 25  2  0
 16 27  4  0
 17 18  4  0
 20 27  1  0
 24 27  4  0
 26 28  4  0
M  END
$$$$

 Created by Python create_sdf_string function

 29 33  0  0  0  0  0  0  0  0999 V2000
    8.8270   -7.0288   18.4251 C   0  0  0  0  0  0  0  0  0  0  0  0
    9.1576   -4.6236   15.8860 O   0  0  0  0  0  0  0  0  0  0  0  0
    9.1509   -5.9108   17.7177 C   0  0  0  0  0  0  0  0  0  0  0  0
    3.6373   -9.5349   16.0582 N   0  0  0  0  0  0  0  0  0  0  0  0
    9.9275   -4.8001   18.0438 N   0  0  0  0  0  0  0  0  0  0  0  0
    8.5908   -5.7425   16.4412 C   0  0  0  0  0  0  0  0  0  0  0  0
   10.5993   -4.8981   21.6068 C   0  0  0  0  0  0  0  0  0  0  0  0
   10.4258   -3.0106   23.0998 C   0  0  0  0  0  0  0  0  0  0  0  0
   10.2148   -3.4364   25.4200 C   0  0  0  0  0  0  0  0  0  0  0  0
    9.7853   -1.1840   24.4927 C   0  0  0  0  0  0  0  0  0  0  0  0
    5.0276   -8.5227   17.5352 C   0  0  0  0  0  0  0  0  0  0  0  0
    9.8187   -2.0895   25.5800 C   0  0  0  0  0  0  0  0  0  0  0  0
    5.6473   -8.7216   15.3158 C   0  0  0  0  0  0  0  0  0  0  0  0
   10.7581   -3.1233   19.4720 N   0  0  0  0  0  0  0  0  0  0  0  0
    9.9571   -4.0573   16.8866 C   0  0  0  0  0  0  0  0  0  0  0  0
    7.6213   -6.5618   16.0087 C   0  0  0  0  0  0  0  0  0  0  0  0
   10.8583   -2.6527   20.7222 C   0  0  0  0  0  0  0  0  0  0  0  0
   10.6412   -3.5089   21.7936 C   0  0  0  0  0  0  0  0  0  0  0  0
   10.4972   -3.8968   24.1589 C   0  0  0  0  0  0  0  0  0  0  0  0
    5.9260   -8.2736   16.5517 C   0  0  0  0  0  0  0  0  0  0  0  0
    3.8816   -9.1166   17.2493 C   0  0  0  0  0  0  0  0  0  0  0  0
   10.1297   -1.6575   23.2324 C   0  0  0  0  0  0  0  0  0  0  0  0
    9.4684   -1.6929   26.7263 F   0  0  0  0  0  0  0  0  0  0  0  0
    7.7963   -7.7906   17.9837 C   0  0  0  0  0  0  0  0  0  0  0  0
   10.5884   -3.0725   16.7902 O   0  0  0  0  0  0  0  0  0  0  0  0
   10.4323   -5.3494   20.3516 C   0  0  0  0  0  0  0  0  0  0  0  0
    7.1156   -7.5454   16.8218 C   0  0  0  0  0  0  0  0  0  0  0  0
   10.3885   -4.4388   19.2773 C   0  0  0  0  0  0  0  0  0  0  0  0
    4.5160   -9.3822   15.0841 C   0  0  0  0  0  0  0  0  0  0  0  0
  1  3  4  0
  1 24  4  0
  2  6  4  0
  2 15  4  0
  3  5  4  0
  3  6  4  0
  4 21  4  0
  4 29  4  0
  5 15  4  0
  5 28  1  0
  6 16  4  0
  7 18  4  0
  7 26  4  0
  8 18  1  0
  8 19  4  0
  8 22  4  0
  9 12  4  0
  9 19  4  0
 10 12  4  0
 10 22  4  0
 11 20  4  0
 11 21  4  0
 12 23  1  0
 13 20  4  0
 13 29  4  0
 14 17  4  0
 14 28  4  0
 15 25  2  0
 16 27  4  0
 17 18  4  0
 20 27  1  0
 24 27  4  0
 26 28  4  0
M  END
$$$$

 Created by Python create_sdf_string function

 29 33  0  0  0  0  0  0  0  0999 V2000
    8.8270   -7.0288   18.4251 C   0  0  0  0  0  0  0  0  0  0  0  0
    9.1576   -4.6236   15.8860 O   0  0  0  0  0  0  0  0  0  0  0  0
    9.1509   -5.9108   17.7177 C   0  0  0  0  0  0  0  0  0  0  0  0
    3.6373   -9.5349   16.0582 N   0  0  0  0  0  0  0  0  0  0  0  0
    9.9275   -4.8001   18.0438 N   0  0  0  0  0  0  0  0  0  0  0  0
    8.5908   -5.7425   16.4412 C   0  0  0  0  0  0  0  0  0  0  0  0
   10.5993   -4.8981   21.6068 C   0  0  0  0  0  0  0  0  0  0  0  0
   10.4258   -3.0106   23.0998 C   0  0  0  0  0  0  0  0  0  0  0  0
   10.2148   -3.4364   25.4200 C   0  0  0  0  0  0  0  0  0  0  0  0
    9.7853   -1.1840   24.4927 C   0  0  0  0  0  0  0  0  0  0  0  0
    5.0276   -8.5227   17.5352 C   0  0  0  0  0  0  0  0  0  0  0  0
    9.8187   -2.0895   25.5800 C   0  0  0  0  0  0  0  0  0  0  0  0
    5.6473   -8.7216   15.3158 C   0  0  0  0  0  0  0  0  0  0  0  0
   10.7581   -3.1233   19.4720 N   0  0  0  0  0  0  0  0  0  0  0  0
    9.9571   -4.0573   16.8866 C   0  0  0  0  0  0  0  0  0  0  0  0
    7.6213   -6.5618   16.0087 C   0  0  0  0  0  0  0  0  0  0  0  0
   10.8583   -2.6527   20.7222 C   0  0  0  0  0  0  0  0  0  0  0  0
   10.6412   -3.5089   21.7936 C   0  0  0  0  0  0  0  0  0  0  0  0
   10.4972   -3.8968   24.1589 C   0  0  0  0  0  0  0  0  0  0  0  0
    5.9260   -8.2736   16.5517 C   0  0  0  0  0  0  0  0  0  0  0  0
    3.8816   -9.1166   17.2493 C   0  0  0  0  0  0  0  0  0  0  0  0
   10.1297   -1.6575   23.2324 C   0  0  0  0  0  0  0  0  0  0  0  0
    9.4684   -1.6929   26.7263 F   0  0  0  0  0  0  0  0  0  0  0  0
    7.7963   -7.7906   17.9837 C   0  0  0  0  0  0  0  0  0  0  0  0
   10.5884   -3.0725   16.7902 O   0  0  0  0  0  0  0  0  0  0  0  0
   10.4323   -5.3494   20.3516 C   0  0  0  0  0  0  0  0  0  0  0  0
    7.1156   -7.5454   16.8218 C   0  0  0  0  0  0  0  0  0  0  0  0
   10.3885   -4.4388   19.2773 C   0  0  0  0  0  0  0  0  0  0  0  0
    4.5160   -9.3822   15.0841 C   0  0  0  0  0  0  0  0  0  0  0  0
  1  3  4  0
  1 24  4  0
  2  6  4  0
  2 15  4  0
  3  5  4  0
  3  6  4  0
  4 21  4  0
  4 29  4  0
  5 15  4  0
  5 28  1  0
  6 16  4  0
  7 18  4  0
  7 26  4  0
  8 18  1  0
  8 19  4  0
  8 22  4  0
  9 12  4  0
  9 19  4  0
 10 12  4  0
 10 22  4  0
 11 20  4  0
 11 21  4  0
 12 23  1  0
 13 20  4  0
 13 29  4  0
 14 17  4  0
 14 28  4  0
 15 25  2  0
 16 27  4  0
 17 18  4  0
 20 27  1  0
 24 27  4  0
 26 28  4  0
M  END
$$$$

 Created by Python create_sdf_string function

 29 33  0  0  0  0  0  0  0  0999 V2000
    8.8270   -7.0288   18.4251 C   0  0  0  0  0  0  0  0  0  0  0  0
    9.1576   -4.6236   15.8860 O   0  0  0  0  0  0  0  0  0  0  0  0
    9.1509   -5.9108   17.7177 C   0  0  0  0  0  0  0  0  0  0  0  0
    3.6373   -9.5349   16.0582 N   0  0  0  0  0  0  0  0  0  0  0  0
    9.9275   -4.8001   18.0438 N   0  0  0  0  0  0  0  0  0  0  0  0
    8.5908   -5.7425   16.4412 C   0  0  0  0  0  0  0  0  0  0  0  0
   10.5993   -4.8981   21.6068 C   0  0  0  0  0  0  0  0  0  0  0  0
   10.4258   -3.0106   23.0998 C   0  0  0  0  0  0  0  0  0  0  0  0
   10.2148   -3.4364   25.4200 C   0  0  0  0  0  0  0  0  0  0  0  0
    9.7853   -1.1840   24.4927 C   0  0  0  0  0  0  0  0  0  0  0  0
    5.0276   -8.5227   17.5352 C   0  0  0  0  0  0  0  0  0  0  0  0
    9.8187   -2.0895   25.5800 C   0  0  0  0  0  0  0  0  0  0  0  0
    5.6473   -8.7216   15.3158 C   0  0  0  0  0  0  0  0  0  0  0  0
   10.7581   -3.1233   19.4720 N   0  0  0  0  0  0  0  0  0  0  0  0
    9.9571   -4.0573   16.8866 C   0  0  0  0  0  0  0  0  0  0  0  0
    7.6213   -6.5618   16.0087 C   0  0  0  0  0  0  0  0  0  0  0  0
   10.8583   -2.6527   20.7222 C   0  0  0  0  0  0  0  0  0  0  0  0
   10.6412   -3.5089   21.7936 C   0  0  0  0  0  0  0  0  0  0  0  0
   10.4972   -3.8968   24.1589 C   0  0  0  0  0  0  0  0  0  0  0  0
    5.9260   -8.2736   16.5517 C   0  0  0  0  0  0  0  0  0  0  0  0
    3.8816   -9.1166   17.2493 C   0  0  0  0  0  0  0  0  0  0  0  0
   10.1297   -1.6575   23.2324 C   0  0  0  0  0  0  0  0  0  0  0  0
    9.4684   -1.6929   26.7263 F   0  0  0  0  0  0  0  0  0  0  0  0
    7.7963   -7.7906   17.9837 C   0  0  0  0  0  0  0  0  0  0  0  0
   10.5884   -3.0725   16.7902 O   0  0  0  0  0  0  0  0  0  0  0  0
   10.4323   -5.3494   20.3516 C   0  0  0  0  0  0  0  0  0  0  0  0
    7.1156   -7.5454   16.8218 C   0  0  0  0  0  0  0  0  0  0  0  0
   10.3885   -4.4388   19.2773 C   0  0  0  0  0  0  0  0  0  0  0  0
    4.5160   -9.3822   15.0841 C   0  0  0  0  0  0  0  0  0  0  0  0
  1  3  4  0
  1 24  4  0
  2  6  4  0
  2 15  4  0
  3  5  4  0
  3  6  4  0
  4 21  4  0
  4 29  4  0
  5 15  4  0
  5 28  1  0
  6 16  4  0
  7 18  4  0
  7 26  4  0
  8 18  1  0
  8 19  4  0
  8 22  4  0
  9 12  4  0
  9 19  4  0
 10 12  4  0
 10 22  4  0
 11 20  4  0
 11 21  4  0
 12 23  1  0
 13 20  4  0
 13 29  4  0
 14 17  4  0
 14 28  4  0
 15 25  2  0
 16 27  4  0
 17 18  4  0
 20 27  1  0
 24 27  4  0
 26 28  4  0
M  END
$$$$

 Created by Python create_sdf_string function

 29 33  0  0  0  0  0  0  0  0999 V2000
    8.8270   -7.0288   18.4251 C   0  0  0  0  0  0  0  0  0  0  0  0
    9.1576   -4.6236   15.8860 O   0  0  0  0  0  0  0  0  0  0  0  0
    9.1509   -5.9108   17.7177 C   0  0  0  0  0  0  0  0  0  0  0  0
    3.6373   -9.5349   16.0582 N   0  0  0  0  0  0  0  0  0  0  0  0
    9.9275   -4.8001   18.0438 N   0  0  0  0  0  0  0  0  0  0  0  0
    8.5908   -5.7425   16.4412 C   0  0  0  0  0  0  0  0  0  0  0  0
   10.5993   -4.8981   21.6068 C   0  0  0  0  0  0  0  0  0  0  0  0
   10.4258   -3.0106   23.0998 C   0  0  0  0  0  0  0  0  0  0  0  0
   10.2148   -3.4364   25.4200 C   0  0  0  0  0  0  0  0  0  0  0  0
    9.7853   -1.1840   24.4927 C   0  0  0  0  0  0  0  0  0  0  0  0
    5.0276   -8.5227   17.5352 C   0  0  0  0  0  0  0  0  0  0  0  0
    9.8187   -2.0895   25.5800 C   0  0  0  0  0  0  0  0  0  0  0  0
    5.6473   -8.7216   15.3158 C   0  0  0  0  0  0  0  0  0  0  0  0
   10.7581   -3.1233   19.4720 N   0  0  0  0  0  0  0  0  0  0  0  0
    9.9571   -4.0573   16.8866 C   0  0  0  0  0  0  0  0  0  0  0  0
    7.6213   -6.5618   16.0087 C   0  0  0  0  0  0  0  0  0  0  0  0
   10.8583   -2.6527   20.7222 C   0  0  0  0  0  0  0  0  0  0  0  0
   10.6412   -3.5089   21.7936 C   0  0  0  0  0  0  0  0  0  0  0  0
   10.4972   -3.8968   24.1589 C   0  0  0  0  0  0  0  0  0  0  0  0
    5.9260   -8.2736   16.5517 C   0  0  0  0  0  0  0  0  0  0  0  0
    3.8816   -9.1166   17.2493 C   0  0  0  0  0  0  0  0  0  0  0  0
   10.1297   -1.6575   23.2324 C   0  0  0  0  0  0  0  0  0  0  0  0
    9.4684   -1.6929   26.7263 F   0  0  0  0  0  0  0  0  0  0  0  0
    7.7963   -7.7906   17.9837 C   0  0  0  0  0  0  0  0  0  0  0  0
   10.5884   -3.0725   16.7902 O   0  0  0  0  0  0  0  0  0  0  0  0
   10.4323   -5.3494   20.3516 C   0  0  0  0  0  0  0  0  0  0  0  0
    7.1156   -7.5454   16.8218 C   0  0  0  0  0  0  0  0  0  0  0  0
   10.3885   -4.4388   19.2773 C   0  0  0  0  0  0  0  0  0  0  0  0
    4.5160   -9.3822   15.0841 C   0  0  0  0  0  0  0  0  0  0  0  0
  1  3  4  0
  1 24  4  0
  2  6  4  0
  2 15  4  0
  3  5  4  0
  3  6  4  0
  4 21  4  0
  4 29  4  0
  5 15  4  0
  5 28  1  0
  6 16  4  0
  7 18  4  0
  7 26  4  0
  8 18  1  0
  8 19  4  0
  8 22  4  0
  9 12  4  0
  9 19  4  0
 10 12  4  0
 10 22  4  0
 11 20  4  0
 11 21  4  0
 12 23  1  0
 13 20  4  0
 13 29  4  0
 14 17  4  0
 14 28  4  0
 15 25  2  0
 16 27  4  0
 17 18  4  0
 20 27  1  0
 24 27  4  0
 26 28  4  0
M  END
$$$$

 Created by Python create_sdf_string function

 29 33  0  0  0  0  0  0  0  0999 V2000
    8.8270   -7.0288   18.4251 C   0  0  0  0  0  0  0  0  0  0  0  0
    9.1576   -4.6236   15.8860 O   0  0  0  0  0  0  0  0  0  0  0  0
    9.1509   -5.9108   17.7177 C   0  0  0  0  0  0  0  0  0  0  0  0
    3.6373   -9.5349   16.0582 N   0  0  0  0  0  0  0  0  0  0  0  0
    9.9275   -4.8001   18.0438 N   0  0  0  0  0  0  0  0  0  0  0  0
    8.5908   -5.7425   16.4412 C   0  0  0  0  0  0  0  0  0  0  0  0
   10.5993   -4.8981   21.6068 C   0  0  0  0  0  0  0  0  0  0  0  0
   10.4258   -3.0106   23.0998 C   0  0  0  0  0  0  0  0  0  0  0  0
   10.2148   -3.4364   25.4200 C   0  0  0  0  0  0  0  0  0  0  0  0
    9.7853   -1.1840   24.4927 C   0  0  0  0  0  0  0  0  0  0  0  0
    5.0276   -8.5227   17.5352 C   0  0  0  0  0  0  0  0  0  0  0  0
    9.8187   -2.0895   25.5800 C   0  0  0  0  0  0  0  0  0  0  0  0
    5.6473   -8.7216   15.3158 C   0  0  0  0  0  0  0  0  0  0  0  0
   10.7581   -3.1233   19.4720 N   0  0  0  0  0  0  0  0  0  0  0  0
    9.9571   -4.0573   16.8866 C   0  0  0  0  0  0  0  0  0  0  0  0
    7.6213   -6.5618   16.0087 C   0  0  0  0  0  0  0  0  0  0  0  0
   10.8583   -2.6527   20.7222 C   0  0  0  0  0  0  0  0  0  0  0  0
   10.6412   -3.5089   21.7936 C   0  0  0  0  0  0  0  0  0  0  0  0
   10.4972   -3.8968   24.1589 C   0  0  0  0  0  0  0  0  0  0  0  0
    5.9260   -8.2736   16.5517 C   0  0  0  0  0  0  0  0  0  0  0  0
    3.8816   -9.1166   17.2493 C   0  0  0  0  0  0  0  0  0  0  0  0
   10.1297   -1.6575   23.2324 C   0  0  0  0  0  0  0  0  0  0  0  0
    9.4684   -1.6929   26.7263 F   0  0  0  0  0  0  0  0  0  0  0  0
    7.7963   -7.7906   17.9837 C   0  0  0  0  0  0  0  0  0  0  0  0
   10.5884   -3.0725   16.7902 O   0  0  0  0  0  0  0  0  0  0  0  0
   10.4323   -5.3494   20.3516 C   0  0  0  0  0  0  0  0  0  0  0  0
    7.1156   -7.5454   16.8218 C   0  0  0  0  0  0  0  0  0  0  0  0
   10.3885   -4.4388   19.2773 C   0  0  0  0  0  0  0  0  0  0  0  0
    4.5160   -9.3822   15.0841 C   0  0  0  0  0  0  0  0  0  0  0  0
  1  3  4  0
  1 24  4  0
  2  6  4  0
  2 15  4  0
  3  5  4  0
  3  6  4  0
  4 21  4  0
  4 29  4  0
  5 15  4  0
  5 28  1  0
  6 16  4  0
  7 18  4  0
  7 26  4  0
  8 18  1  0
  8 19  4  0
  8 22  4  0
  9 12  4  0
  9 19  4  0
 10 12  4  0
 10 22  4  0
 11 20  4  0
 11 21  4  0
 12 23  1  0
 13 20  4  0
 13 29  4  0
 14 17  4  0
 14 28  4  0
 15 25  2  0
 16 27  4  0
 17 18  4  0
 20 27  1  0
 24 27  4  0
 26 28  4  0
M  END
$$$$

 Created by Python create_sdf_string function

 29 33  0  0  0  0  0  0  0  0999 V2000
    8.8270   -7.0288   18.4251 C   0  0  0  0  0  0  0  0  0  0  0  0
    9.1576   -4.6236   15.8860 O   0  0  0  0  0  0  0  0  0  0  0  0
    9.1509   -5.9108   17.7177 C   0  0  0  0  0  0  0  0  0  0  0  0
    3.6373   -9.5349   16.0582 N   0  0  0  0  0  0  0  0  0  0  0  0
    9.9275   -4.8001   18.0438 N   0  0  0  0  0  0  0  0  0  0  0  0
    8.5908   -5.7425   16.4412 C   0  0  0  0  0  0  0  0  0  0  0  0
   10.5993   -4.8981   21.6068 C   0  0  0  0  0  0  0  0  0  0  0  0
   10.4258   -3.0106   23.0998 C   0  0  0  0  0  0  0  0  0  0  0  0
   10.2148   -3.4364   25.4200 C   0  0  0  0  0  0  0  0  0  0  0  0
    9.7853   -1.1840   24.4927 C   0  0  0  0  0  0  0  0  0  0  0  0
    5.0276   -8.5227   17.5352 C   0  0  0  0  0  0  0  0  0  0  0  0
    9.8187   -2.0895   25.5800 C   0  0  0  0  0  0  0  0  0  0  0  0
    5.6473   -8.7216   15.3158 C   0  0  0  0  0  0  0  0  0  0  0  0
   10.7581   -3.1233   19.4720 N   0  0  0  0  0  0  0  0  0  0  0  0
    9.9571   -4.0573   16.8866 C   0  0  0  0  0  0  0  0  0  0  0  0
    7.6213   -6.5618   16.0087 C   0  0  0  0  0  0  0  0  0  0  0  0
   10.8583   -2.6527   20.7222 C   0  0  0  0  0  0  0  0  0  0  0  0
   10.6412   -3.5089   21.7936 C   0  0  0  0  0  0  0  0  0  0  0  0
   10.4972   -3.8968   24.1589 C   0  0  0  0  0  0  0  0  0  0  0  0
    5.9260   -8.2736   16.5517 C   0  0  0  0  0  0  0  0  0  0  0  0
    3.8816   -9.1166   17.2493 C   0  0  0  0  0  0  0  0  0  0  0  0
   10.1297   -1.6575   23.2324 C   0  0  0  0  0  0  0  0  0  0  0  0
    9.4684   -1.6929   26.7263 F   0  0  0  0  0  0  0  0  0  0  0  0
    7.7963   -7.7906   17.9837 C   0  0  0  0  0  0  0  0  0  0  0  0
   10.5884   -3.0725   16.7902 O   0  0  0  0  0  0  0  0  0  0  0  0
   10.4323   -5.3494   20.3516 C   0  0  0  0  0  0  0  0  0  0  0  0
    7.1156   -7.5454   16.8218 C   0  0  0  0  0  0  0  0  0  0  0  0
   10.3885   -4.4388   19.2773 C   0  0  0  0  0  0  0  0  0  0  0  0
    4.5160   -9.3822   15.0841 C   0  0  0  0  0  0  0  0  0  0  0  0
  1  3  4  0
  1 24  4  0
  2  6  4  0
  2 15  4  0
  3  5  4  0
  3  6  4  0
  4 21  4  0
  4 29  4  0
  5 15  4  0
  5 28  1  0
  6 16  4  0
  7 18  4  0
  7 26  4  0
  8 18  1  0
  8 19  4  0
  8 22  4  0
  9 12  4  0
  9 19  4  0
 10 12  4  0
 10 22  4  0
 11 20  4  0
 11 21  4  0
 12 23  1  0
 13 20  4  0
 13 29  4  0
 14 17  4  0
 14 28  4  0
 15 25  2  0
 16 27  4  0
 17 18  4  0
 20 27  1  0
 24 27  4  0
 26 28  4  0
M  END
$$$$

 Created by Python create_sdf_string function

 29 33  0  0  0  0  0  0  0  0999 V2000
    8.8270   -7.0288   18.4251 C   0  0  0  0  0  0  0  0  0  0  0  0
    9.1576   -4.6236   15.8860 O   0  0  0  0  0  0  0  0  0  0  0  0
    9.1509   -5.9108   17.7177 C   0  0  0  0  0  0  0  0  0  0  0  0
    3.6373   -9.5349   16.0582 N   0  0  0  0  0  0  0  0  0  0  0  0
    9.9275   -4.8001   18.0438 N   0  0  0  0  0  0  0  0  0  0  0  0
    8.5908   -5.7425   16.4412 C   0  0  0  0  0  0  0  0  0  0  0  0
   10.5993   -4.8981   21.6068 C   0  0  0  0  0  0  0  0  0  0  0  0
   10.4258   -3.0106   23.0998 C   0  0  0  0  0  0  0  0  0  0  0  0
   10.2148   -3.4364   25.4200 C   0  0  0  0  0  0  0  0  0  0  0  0
    9.7853   -1.1840   24.4927 C   0  0  0  0  0  0  0  0  0  0  0  0
    5.0276   -8.5227   17.5352 C   0  0  0  0  0  0  0  0  0  0  0  0
    9.8187   -2.0895   25.5800 C   0  0  0  0  0  0  0  0  0  0  0  0
    5.6473   -8.7216   15.3158 C   0  0  0  0  0  0  0  0  0  0  0  0
   10.7581   -3.1233   19.4720 N   0  0  0  0  0  0  0  0  0  0  0  0
    9.9571   -4.0573   16.8866 C   0  0  0  0  0  0  0  0  0  0  0  0
    7.6213   -6.5618   16.0087 C   0  0  0  0  0  0  0  0  0  0  0  0
   10.8583   -2.6527   20.7222 C   0  0  0  0  0  0  0  0  0  0  0  0
   10.6412   -3.5089   21.7936 C   0  0  0  0  0  0  0  0  0  0  0  0
   10.4972   -3.8968   24.1589 C   0  0  0  0  0  0  0  0  0  0  0  0
    5.9260   -8.2736   16.5517 C   0  0  0  0  0  0  0  0  0  0  0  0
    3.8816   -9.1166   17.2493 C   0  0  0  0  0  0  0  0  0  0  0  0
   10.1297   -1.6575   23.2324 C   0  0  0  0  0  0  0  0  0  0  0  0
    9.4684   -1.6929   26.7263 F   0  0  0  0  0  0  0  0  0  0  0  0
    7.7963   -7.7906   17.9837 C   0  0  0  0  0  0  0  0  0  0  0  0
   10.5884   -3.0725   16.7902 O   0  0  0  0  0  0  0  0  0  0  0  0
   10.4323   -5.3494   20.3516 C   0  0  0  0  0  0  0  0  0  0  0  0
    7.1156   -7.5454   16.8218 C   0  0  0  0  0  0  0  0  0  0  0  0
   10.3885   -4.4388   19.2773 C   0  0  0  0  0  0  0  0  0  0  0  0
    4.5160   -9.3822   15.0841 C   0  0  0  0  0  0  0  0  0  0  0  0
  1  3  4  0
  1 24  4  0
  2  6  4  0
  2 15  4  0
  3  5  4  0
  3  6  4  0
  4 21  4  0
  4 29  4  0
  5 15  4  0
  5 28  1  0
  6 16  4  0
  7 18  4  0
  7 26  4  0
  8 18  1  0
  8 19  4  0
  8 22  4  0
  9 12  4  0
  9 19  4  0
 10 12  4  0
 10 22  4  0
 11 20  4  0
 11 21  4  0
 12 23  1  0
 13 20  4  0
 13 29  4  0
 14 17  4  0
 14 28  4  0
 15 25  2  0
 16 27  4  0
 17 18  4  0
 20 27  1  0
 24 27  4  0
 26 28  4  0
M  END
$$$$

 Created by Python create_sdf_string function

 29 33  0  0  0  0  0  0  0  0999 V2000
    8.8270   -7.0288   18.4251 C   0  0  0  0  0  0  0  0  0  0  0  0
    9.1576   -4.6236   15.8860 O   0  0  0  0  0  0  0  0  0  0  0  0
    9.1509   -5.9108   17.7177 C   0  0  0  0  0  0  0  0  0  0  0  0
    3.6373   -9.5349   16.0582 N   0  0  0  0  0  0  0  0  0  0  0  0
    9.9275   -4.8001   18.0438 N   0  0  0  0  0  0  0  0  0  0  0  0
    8.5908   -5.7425   16.4412 C   0  0  0  0  0  0  0  0  0  0  0  0
   10.5993   -4.8981   21.6068 C   0  0  0  0  0  0  0  0  0  0  0  0
   10.4258   -3.0106   23.0998 C   0  0  0  0  0  0  0  0  0  0  0  0
   10.2148   -3.4364   25.4200 C   0  0  0  0  0  0  0  0  0  0  0  0
    9.7853   -1.1840   24.4927 C   0  0  0  0  0  0  0  0  0  0  0  0
    5.0276   -8.5227   17.5352 C   0  0  0  0  0  0  0  0  0  0  0  0
    9.8187   -2.0895   25.5800 C   0  0  0  0  0  0  0  0  0  0  0  0
    5.6473   -8.7216   15.3158 C   0  0  0  0  0  0  0  0  0  0  0  0
   10.7581   -3.1233   19.4720 N   0  0  0  0  0  0  0  0  0  0  0  0
    9.9571   -4.0573   16.8866 C   0  0  0  0  0  0  0  0  0  0  0  0
    7.6213   -6.5618   16.0087 C   0  0  0  0  0  0  0  0  0  0  0  0
   10.8583   -2.6527   20.7222 C   0  0  0  0  0  0  0  0  0  0  0  0
   10.6412   -3.5089   21.7936 C   0  0  0  0  0  0  0  0  0  0  0  0
   10.4972   -3.8968   24.1589 C   0  0  0  0  0  0  0  0  0  0  0  0
    5.9260   -8.2736   16.5517 C   0  0  0  0  0  0  0  0  0  0  0  0
    3.8816   -9.1166   17.2493 C   0  0  0  0  0  0  0  0  0  0  0  0
   10.1297   -1.6575   23.2324 C   0  0  0  0  0  0  0  0  0  0  0  0
    9.4684   -1.6929   26.7263 F   0  0  0  0  0  0  0  0  0  0  0  0
    7.7963   -7.7906   17.9837 C   0  0  0  0  0  0  0  0  0  0  0  0
   10.5884   -3.0725   16.7902 O   0  0  0  0  0  0  0  0  0  0  0  0
   10.4323   -5.3494   20.3516 C   0  0  0  0  0  0  0  0  0  0  0  0
    7.1156   -7.5454   16.8218 C   0  0  0  0  0  0  0  0  0  0  0  0
   10.3885   -4.4388   19.2773 C   0  0  0  0  0  0  0  0  0  0  0  0
    4.5160   -9.3822   15.0841 C   0  0  0  0  0  0  0  0  0  0  0  0
  1  3  4  0
  1 24  4  0
  2  6  4  0
  2 15  4  0
  3  5  4  0
  3  6  4  0
  4 21  4  0
  4 29  4  0
  5 15  4  0
  5 28  1  0
  6 16  4  0
  7 18  4  0
  7 26  4  0
  8 18  1  0
  8 19  4  0
  8 22  4  0
  9 12  4  0
  9 19  4  0
 10 12  4  0
 10 22  4  0
 11 20  4  0
 11 21  4  0
 12 23  1  0
 13 20  4  0
 13 29  4  0
 14 17  4  0
 14 28  4  0
 15 25  2  0
 16 27  4  0
 17 18  4  0
 20 27  1  0
 24 27  4  0
 26 28  4  0
M  END
$$$$

 Created by Python create_sdf_string function

 29 33  0  0  0  0  0  0  0  0999 V2000
    8.8270   -7.0288   18.4251 C   0  0  0  0  0  0  0  0  0  0  0  0
    9.1576   -4.6236   15.8860 O   0  0  0  0  0  0  0  0  0  0  0  0
    9.1509   -5.9108   17.7177 C   0  0  0  0  0  0  0  0  0  0  0  0
    3.6373   -9.5349   16.0582 N   0  0  0  0  0  0  0  0  0  0  0  0
    9.9275   -4.8001   18.0438 N   0  0  0  0  0  0  0  0  0  0  0  0
    8.5908   -5.7425   16.4412 C   0  0  0  0  0  0  0  0  0  0  0  0
   10.5993   -4.8981   21.6068 C   0  0  0  0  0  0  0  0  0  0  0  0
   10.4258   -3.0106   23.0998 C   0  0  0  0  0  0  0  0  0  0  0  0
   10.2148   -3.4364   25.4200 C   0  0  0  0  0  0  0  0  0  0  0  0
    9.7853   -1.1840   24.4927 C   0  0  0  0  0  0  0  0  0  0  0  0
    5.0276   -8.5227   17.5352 C   0  0  0  0  0  0  0  0  0  0  0  0
    9.8187   -2.0895   25.5800 C   0  0  0  0  0  0  0  0  0  0  0  0
    5.6473   -8.7216   15.3158 C   0  0  0  0  0  0  0  0  0  0  0  0
   10.7581   -3.1233   19.4720 N   0  0  0  0  0  0  0  0  0  0  0  0
    9.9571   -4.0573   16.8866 C   0  0  0  0  0  0  0  0  0  0  0  0
    7.6213   -6.5618   16.0087 C   0  0  0  0  0  0  0  0  0  0  0  0
   10.8583   -2.6527   20.7222 C   0  0  0  0  0  0  0  0  0  0  0  0
   10.6412   -3.5089   21.7936 C   0  0  0  0  0  0  0  0  0  0  0  0
   10.4972   -3.8968   24.1589 C   0  0  0  0  0  0  0  0  0  0  0  0
    5.9260   -8.2736   16.5517 C   0  0  0  0  0  0  0  0  0  0  0  0
    3.8816   -9.1166   17.2493 C   0  0  0  0  0  0  0  0  0  0  0  0
   10.1297   -1.6575   23.2324 C   0  0  0  0  0  0  0  0  0  0  0  0
    9.4684   -1.6929   26.7263 F   0  0  0  0  0  0  0  0  0  0  0  0
    7.7963   -7.7906   17.9837 C   0  0  0  0  0  0  0  0  0  0  0  0
   10.5884   -3.0725   16.7902 O   0  0  0  0  0  0  0  0  0  0  0  0
   10.4323   -5.3494   20.3516 C   0  0  0  0  0  0  0  0  0  0  0  0
    7.1156   -7.5454   16.8218 C   0  0  0  0  0  0  0  0  0  0  0  0
   10.3885   -4.4388   19.2773 C   0  0  0  0  0  0  0  0  0  0  0  0
    4.5160   -9.3822   15.0841 C   0  0  0  0  0  0  0  0  0  0  0  0
  1  3  4  0
  1 24  4  0
  2  6  4  0
  2 15  4  0
  3  5  4  0
  3  6  4  0
  4 21  4  0
  4 29  4  0
  5 15  4  0
  5 28  1  0
  6 16  4  0
  7 18  4  0
  7 26  4  0
  8 18  1  0
  8 19  4  0
  8 22  4  0
  9 12  4  0
  9 19  4  0
 10 12  4  0
 10 22  4  0
 11 20  4  0
 11 21  4  0
 12 23  1  0
 13 20  4  0
 13 29  4  0
 14 17  4  0
 14 28  4  0
 15 25  2  0
 16 27  4  0
 17 18  4  0
 20 27  1  0
 24 27  4  0
 26 28  4  0
M  END
$$$$

 Created by Python create_sdf_string function

 29 33  0  0  0  0  0  0  0  0999 V2000
    8.8270   -7.0288   18.4251 C   0  0  0  0  0  0  0  0  0  0  0  0
    9.1576   -4.6236   15.8860 O   0  0  0  0  0  0  0  0  0  0  0  0
    9.1509   -5.9108   17.7177 C   0  0  0  0  0  0  0  0  0  0  0  0
    3.6373   -9.5349   16.0582 N   0  0  0  0  0  0  0  0  0  0  0  0
    9.9275   -4.8001   18.0438 N   0  0  0  0  0  0  0  0  0  0  0  0
    8.5908   -5.7425   16.4412 C   0  0  0  0  0  0  0  0  0  0  0  0
   10.5993   -4.8981   21.6068 C   0  0  0  0  0  0  0  0  0  0  0  0
   10.4258   -3.0106   23.0998 C   0  0  0  0  0  0  0  0  0  0  0  0
   10.2148   -3.4364   25.4200 C   0  0  0  0  0  0  0  0  0  0  0  0
    9.7853   -1.1840   24.4927 C   0  0  0  0  0  0  0  0  0  0  0  0
    5.0276   -8.5227   17.5352 C   0  0  0  0  0  0  0  0  0  0  0  0
    9.8187   -2.0895   25.5800 C   0  0  0  0  0  0  0  0  0  0  0  0
    5.6473   -8.7216   15.3158 C   0  0  0  0  0  0  0  0  0  0  0  0
   10.7581   -3.1233   19.4720 N   0  0  0  0  0  0  0  0  0  0  0  0
    9.9571   -4.0573   16.8866 C   0  0  0  0  0  0  0  0  0  0  0  0
    7.6213   -6.5618   16.0087 C   0  0  0  0  0  0  0  0  0  0  0  0
   10.8583   -2.6527   20.7222 C   0  0  0  0  0  0  0  0  0  0  0  0
   10.6412   -3.5089   21.7936 C   0  0  0  0  0  0  0  0  0  0  0  0
   10.4972   -3.8968   24.1589 C   0  0  0  0  0  0  0  0  0  0  0  0
    5.9260   -8.2736   16.5517 C   0  0  0  0  0  0  0  0  0  0  0  0
    3.8816   -9.1166   17.2493 C   0  0  0  0  0  0  0  0  0  0  0  0
   10.1297   -1.6575   23.2324 C   0  0  0  0  0  0  0  0  0  0  0  0
    9.4684   -1.6929   26.7263 F   0  0  0  0  0  0  0  0  0  0  0  0
    7.7963   -7.7906   17.9837 C   0  0  0  0  0  0  0  0  0  0  0  0
   10.5884   -3.0725   16.7902 O   0  0  0  0  0  0  0  0  0  0  0  0
   10.4323   -5.3494   20.3516 C   0  0  0  0  0  0  0  0  0  0  0  0
    7.1156   -7.5454   16.8218 C   0  0  0  0  0  0  0  0  0  0  0  0
   10.3885   -4.4388   19.2773 C   0  0  0  0  0  0  0  0  0  0  0  0
    4.5160   -9.3822   15.0841 C   0  0  0  0  0  0  0  0  0  0  0  0
  1  3  4  0
  1 24  4  0
  2  6  4  0
  2 15  4  0
  3  5  4  0
  3  6  4  0
  4 21  4  0
  4 29  4  0
  5 15  4  0
  5 28  1  0
  6 16  4  0
  7 18  4  0
  7 26  4  0
  8 18  1  0
  8 19  4  0
  8 22  4  0
  9 12  4  0
  9 19  4  0
 10 12  4  0
 10 22  4  0
 11 20  4  0
 11 21  4  0
 12 23  1  0
 13 20  4  0
 13 29  4  0
 14 17  4  0
 14 28  4  0
 15 25  2  0
 16 27  4  0
 17 18  4  0
 20 27  1  0
 24 27  4  0
 26 28  4  0
M  END
$$$$

 Created by Python create_sdf_string function

 29 33  0  0  0  0  0  0  0  0999 V2000
    8.8270   -7.0288   18.4251 C   0  0  0  0  0  0  0  0  0  0  0  0
    9.1576   -4.6236   15.8860 O   0  0  0  0  0  0  0  0  0  0  0  0
    9.1509   -5.9108   17.7177 C   0  0  0  0  0  0  0  0  0  0  0  0
    3.6373   -9.5349   16.0582 N   0  0  0  0  0  0  0  0  0  0  0  0
    9.9275   -4.8001   18.0438 N   0  0  0  0  0  0  0  0  0  0  0  0
    8.5908   -5.7425   16.4412 C   0  0  0  0  0  0  0  0  0  0  0  0
   10.5993   -4.8981   21.6068 C   0  0  0  0  0  0  0  0  0  0  0  0
   10.4258   -3.0106   23.0998 C   0  0  0  0  0  0  0  0  0  0  0  0
   10.2148   -3.4364   25.4200 C   0  0  0  0  0  0  0  0  0  0  0  0
    9.7853   -1.1840   24.4927 C   0  0  0  0  0  0  0  0  0  0  0  0
    5.0276   -8.5227   17.5352 C   0  0  0  0  0  0  0  0  0  0  0  0
    9.8187   -2.0895   25.5800 C   0  0  0  0  0  0  0  0  0  0  0  0
    5.6473   -8.7216   15.3158 C   0  0  0  0  0  0  0  0  0  0  0  0
   10.7581   -3.1233   19.4720 N   0  0  0  0  0  0  0  0  0  0  0  0
    9.9571   -4.0573   16.8866 C   0  0  0  0  0  0  0  0  0  0  0  0
    7.6213   -6.5618   16.0087 C   0  0  0  0  0  0  0  0  0  0  0  0
   10.8583   -2.6527   20.7222 C   0  0  0  0  0  0  0  0  0  0  0  0
   10.6412   -3.5089   21.7936 C   0  0  0  0  0  0  0  0  0  0  0  0
   10.4972   -3.8968   24.1589 C   0  0  0  0  0  0  0  0  0  0  0  0
    5.9260   -8.2736   16.5517 C   0  0  0  0  0  0  0  0  0  0  0  0
    3.8816   -9.1166   17.2493 C   0  0  0  0  0  0  0  0  0  0  0  0
   10.1297   -1.6575   23.2324 C   0  0  0  0  0  0  0  0  0  0  0  0
    9.4684   -1.6929   26.7263 F   0  0  0  0  0  0  0  0  0  0  0  0
    7.7963   -7.7906   17.9837 C   0  0  0  0  0  0  0  0  0  0  0  0
   10.5884   -3.0725   16.7902 O   0  0  0  0  0  0  0  0  0  0  0  0
   10.4323   -5.3494   20.3516 C   0  0  0  0  0  0  0  0  0  0  0  0
    7.1156   -7.5454   16.8218 C   0  0  0  0  0  0  0  0  0  0  0  0
   10.3885   -4.4388   19.2773 C   0  0  0  0  0  0  0  0  0  0  0  0
    4.5160   -9.3822   15.0841 C   0  0  0  0  0  0  0  0  0  0  0  0
  1  3  4  0
  1 24  4  0
  2  6  4  0
  2 15  4  0
  3  5  4  0
  3  6  4  0
  4 21  4  0
  4 29  4  0
  5 15  4  0
  5 28  1  0
  6 16  4  0
  7 18  4  0
  7 26  4  0
  8 18  1  0
  8 19  4  0
  8 22  4  0
  9 12  4  0
  9 19  4  0
 10 12  4  0
 10 22  4  0
 11 20  4  0
 11 21  4  0
 12 23  1  0
 13 20  4  0
 13 29  4  0
 14 17  4  0
 14 28  4  0
 15 25  2  0
 16 27  4  0
 17 18  4  0
 20 27  1  0
 24 27  4  0
 26 28  4  0
M  END
$$$$

 Created by Python create_sdf_string function

 29 33  0  0  0  0  0  0  0  0999 V2000
    8.8270   -7.0288   18.4251 C   0  0  0  0  0  0  0  0  0  0  0  0
    9.1576   -4.6236   15.8860 O   0  0  0  0  0  0  0  0  0  0  0  0
    9.1509   -5.9108   17.7177 C   0  0  0  0  0  0  0  0  0  0  0  0
    3.6373   -9.5349   16.0582 N   0  0  0  0  0  0  0  0  0  0  0  0
    9.9275   -4.8001   18.0438 N   0  0  0  0  0  0  0  0  0  0  0  0
    8.5908   -5.7425   16.4412 C   0  0  0  0  0  0  0  0  0  0  0  0
   10.5993   -4.8981   21.6068 C   0  0  0  0  0  0  0  0  0  0  0  0
   10.4258   -3.0106   23.0998 C   0  0  0  0  0  0  0  0  0  0  0  0
   10.2148   -3.4364   25.4200 C   0  0  0  0  0  0  0  0  0  0  0  0
    9.7853   -1.1840   24.4927 C   0  0  0  0  0  0  0  0  0  0  0  0
    5.0276   -8.5227   17.5352 C   0  0  0  0  0  0  0  0  0  0  0  0
    9.8187   -2.0895   25.5800 C   0  0  0  0  0  0  0  0  0  0  0  0
    5.6473   -8.7216   15.3158 C   0  0  0  0  0  0  0  0  0  0  0  0
   10.7581   -3.1233   19.4720 N   0  0  0  0  0  0  0  0  0  0  0  0
    9.9571   -4.0573   16.8866 C   0  0  0  0  0  0  0  0  0  0  0  0
    7.6213   -6.5618   16.0087 C   0  0  0  0  0  0  0  0  0  0  0  0
   10.8583   -2.6527   20.7222 C   0  0  0  0  0  0  0  0  0  0  0  0
   10.6412   -3.5089   21.7936 C   0  0  0  0  0  0  0  0  0  0  0  0
   10.4972   -3.8968   24.1589 C   0  0  0  0  0  0  0  0  0  0  0  0
    5.9260   -8.2736   16.5517 C   0  0  0  0  0  0  0  0  0  0  0  0
    3.8816   -9.1166   17.2493 C   0  0  0  0  0  0  0  0  0  0  0  0
   10.1297   -1.6575   23.2324 C   0  0  0  0  0  0  0  0  0  0  0  0
    9.4684   -1.6929   26.7263 F   0  0  0  0  0  0  0  0  0  0  0  0
    7.7963   -7.7906   17.9837 C   0  0  0  0  0  0  0  0  0  0  0  0
   10.5884   -3.0725   16.7902 O   0  0  0  0  0  0  0  0  0  0  0  0
   10.4323   -5.3494   20.3516 C   0  0  0  0  0  0  0  0  0  0  0  0
    7.1156   -7.5454   16.8218 C   0  0  0  0  0  0  0  0  0  0  0  0
   10.3885   -4.4388   19.2773 C   0  0  0  0  0  0  0  0  0  0  0  0
    4.5160   -9.3822   15.0841 C   0  0  0  0  0  0  0  0  0  0  0  0
  1  3  4  0
  1 24  4  0
  2  6  4  0
  2 15  4  0
  3  5  4  0
  3  6  4  0
  4 21  4  0
  4 29  4  0
  5 15  4  0
  5 28  1  0
  6 16  4  0
  7 18  4  0
  7 26  4  0
  8 18  1  0
  8 19  4  0
  8 22  4  0
  9 12  4  0
  9 19  4  0
 10 12  4  0
 10 22  4  0
 11 20  4  0
 11 21  4  0
 12 23  1  0
 13 20  4  0
 13 29  4  0
 14 17  4  0
 14 28  4  0
 15 25  2  0
 16 27  4  0
 17 18  4  0
 20 27  1  0
 24 27  4  0
 26 28  4  0
M  END
$$$$

 Created by Python create_sdf_string function

 29 33  0  0  0  0  0  0  0  0999 V2000
    8.8270   -7.0288   18.4251 C   0  0  0  0  0  0  0  0  0  0  0  0
    9.1576   -4.6236   15.8860 O   0  0  0  0  0  0  0  0  0  0  0  0
    9.1509   -5.9108   17.7177 C   0  0  0  0  0  0  0  0  0  0  0  0
    3.6373   -9.5349   16.0582 N   0  0  0  0  0  0  0  0  0  0  0  0
    9.9275   -4.8001   18.0438 N   0  0  0  0  0  0  0  0  0  0  0  0
    8.5908   -5.7425   16.4412 C   0  0  0  0  0  0  0  0  0  0  0  0
   10.5993   -4.8981   21.6068 C   0  0  0  0  0  0  0  0  0  0  0  0
   10.4258   -3.0106   23.0998 C   0  0  0  0  0  0  0  0  0  0  0  0
   10.2148   -3.4364   25.4200 C   0  0  0  0  0  0  0  0  0  0  0  0
    9.7853   -1.1840   24.4927 C   0  0  0  0  0  0  0  0  0  0  0  0
    5.0276   -8.5227   17.5352 C   0  0  0  0  0  0  0  0  0  0  0  0
    9.8187   -2.0895   25.5800 C   0  0  0  0  0  0  0  0  0  0  0  0
    5.6473   -8.7216   15.3158 C   0  0  0  0  0  0  0  0  0  0  0  0
   10.7581   -3.1233   19.4720 N   0  0  0  0  0  0  0  0  0  0  0  0
    9.9571   -4.0573   16.8866 C   0  0  0  0  0  0  0  0  0  0  0  0
    7.6213   -6.5618   16.0087 C   0  0  0  0  0  0  0  0  0  0  0  0
   10.8583   -2.6527   20.7222 C   0  0  0  0  0  0  0  0  0  0  0  0
   10.6412   -3.5089   21.7936 C   0  0  0  0  0  0  0  0  0  0  0  0
   10.4972   -3.8968   24.1589 C   0  0  0  0  0  0  0  0  0  0  0  0
    5.9260   -8.2736   16.5517 C   0  0  0  0  0  0  0  0  0  0  0  0
    3.8816   -9.1166   17.2493 C   0  0  0  0  0  0  0  0  0  0  0  0
   10.1297   -1.6575   23.2324 C   0  0  0  0  0  0  0  0  0  0  0  0
    9.4684   -1.6929   26.7263 F   0  0  0  0  0  0  0  0  0  0  0  0
    7.7963   -7.7906   17.9837 C   0  0  0  0  0  0  0  0  0  0  0  0
   10.5884   -3.0725   16.7902 O   0  0  0  0  0  0  0  0  0  0  0  0
   10.4323   -5.3494   20.3516 C   0  0  0  0  0  0  0  0  0  0  0  0
    7.1156   -7.5454   16.8218 C   0  0  0  0  0  0  0  0  0  0  0  0
   10.3885   -4.4388   19.2773 C   0  0  0  0  0  0  0  0  0  0  0  0
    4.5160   -9.3822   15.0841 C   0  0  0  0  0  0  0  0  0  0  0  0
  1  3  4  0
  1 24  4  0
  2  6  4  0
  2 15  4  0
  3  5  4  0
  3  6  4  0
  4 21  4  0
  4 29  4  0
  5 15  4  0
  5 28  1  0
  6 16  4  0
  7 18  4  0
  7 26  4  0
  8 18  1  0
  8 19  4  0
  8 22  4  0
  9 12  4  0
  9 19  4  0
 10 12  4  0
 10 22  4  0
 11 20  4  0
 11 21  4  0
 12 23  1  0
 13 20  4  0
 13 29  4  0
 14 17  4  0
 14 28  4  0
 15 25  2  0
 16 27  4  0
 17 18  4  0
 20 27  1  0
 24 27  4  0
 26 28  4  0
M  END
$$$$

 Created by Python create_sdf_string function

 29 33  0  0  0  0  0  0  0  0999 V2000
    8.8270   -7.0288   18.4251 C   0  0  0  0  0  0  0  0  0  0  0  0
    9.1576   -4.6236   15.8860 O   0  0  0  0  0  0  0  0  0  0  0  0
    9.1509   -5.9108   17.7177 C   0  0  0  0  0  0  0  0  0  0  0  0
    3.6373   -9.5349   16.0582 N   0  0  0  0  0  0  0  0  0  0  0  0
    9.9275   -4.8001   18.0438 N   0  0  0  0  0  0  0  0  0  0  0  0
    8.5908   -5.7425   16.4412 C   0  0  0  0  0  0  0  0  0  0  0  0
   10.5993   -4.8981   21.6068 C   0  0  0  0  0  0  0  0  0  0  0  0
   10.4258   -3.0106   23.0998 C   0  0  0  0  0  0  0  0  0  0  0  0
   10.2148   -3.4364   25.4200 C   0  0  0  0  0  0  0  0  0  0  0  0
    9.7853   -1.1840   24.4927 C   0  0  0  0  0  0  0  0  0  0  0  0
    5.0276   -8.5227   17.5352 C   0  0  0  0  0  0  0  0  0  0  0  0
    9.8187   -2.0895   25.5800 C   0  0  0  0  0  0  0  0  0  0  0  0
    5.6473   -8.7216   15.3158 C   0  0  0  0  0  0  0  0  0  0  0  0
   10.7581   -3.1233   19.4720 N   0  0  0  0  0  0  0  0  0  0  0  0
    9.9571   -4.0573   16.8866 C   0  0  0  0  0  0  0  0  0  0  0  0
    7.6213   -6.5618   16.0087 C   0  0  0  0  0  0  0  0  0  0  0  0
   10.8583   -2.6527   20.7222 C   0  0  0  0  0  0  0  0  0  0  0  0
   10.6412   -3.5089   21.7936 C   0  0  0  0  0  0  0  0  0  0  0  0
   10.4972   -3.8968   24.1589 C   0  0  0  0  0  0  0  0  0  0  0  0
    5.9260   -8.2736   16.5517 C   0  0  0  0  0  0  0  0  0  0  0  0
    3.8816   -9.1166   17.2493 C   0  0  0  0  0  0  0  0  0  0  0  0
   10.1297   -1.6575   23.2324 C   0  0  0  0  0  0  0  0  0  0  0  0
    9.4684   -1.6929   26.7263 F   0  0  0  0  0  0  0  0  0  0  0  0
    7.7963   -7.7906   17.9837 C   0  0  0  0  0  0  0  0  0  0  0  0
   10.5884   -3.0725   16.7902 O   0  0  0  0  0  0  0  0  0  0  0  0
   10.4323   -5.3494   20.3516 C   0  0  0  0  0  0  0  0  0  0  0  0
    7.1156   -7.5454   16.8218 C   0  0  0  0  0  0  0  0  0  0  0  0
   10.3885   -4.4388   19.2773 C   0  0  0  0  0  0  0  0  0  0  0  0
    4.5160   -9.3822   15.0841 C   0  0  0  0  0  0  0  0  0  0  0  0
  1  3  4  0
  1 24  4  0
  2  6  4  0
  2 15  4  0
  3  5  4  0
  3  6  4  0
  4 21  4  0
  4 29  4  0
  5 15  4  0
  5 28  1  0
  6 16  4  0
  7 18  4  0
  7 26  4  0
  8 18  1  0
  8 19  4  0
  8 22  4  0
  9 12  4  0
  9 19  4  0
 10 12  4  0
 10 22  4  0
 11 20  4  0
 11 21  4  0
 12 23  1  0
 13 20  4  0
 13 29  4  0
 14 17  4  0
 14 28  4  0
 15 25  2  0
 16 27  4  0
 17 18  4  0
 20 27  1  0
 24 27  4  0
 26 28  4  0
M  END
$$$$

 Created by Python create_sdf_string function

 29 33  0  0  0  0  0  0  0  0999 V2000
    8.8270   -7.0288   18.4251 C   0  0  0  0  0  0  0  0  0  0  0  0
    9.1576   -4.6236   15.8860 O   0  0  0  0  0  0  0  0  0  0  0  0
    9.1509   -5.9108   17.7177 C   0  0  0  0  0  0  0  0  0  0  0  0
    3.6373   -9.5349   16.0582 N   0  0  0  0  0  0  0  0  0  0  0  0
    9.9275   -4.8001   18.0438 N   0  0  0  0  0  0  0  0  0  0  0  0
    8.5908   -5.7425   16.4412 C   0  0  0  0  0  0  0  0  0  0  0  0
   10.5993   -4.8981   21.6068 C   0  0  0  0  0  0  0  0  0  0  0  0
   10.4258   -3.0106   23.0998 C   0  0  0  0  0  0  0  0  0  0  0  0
   10.2148   -3.4364   25.4200 C   0  0  0  0  0  0  0  0  0  0  0  0
    9.7853   -1.1840   24.4927 C   0  0  0  0  0  0  0  0  0  0  0  0
    5.0276   -8.5227   17.5352 C   0  0  0  0  0  0  0  0  0  0  0  0
    9.8187   -2.0895   25.5800 C   0  0  0  0  0  0  0  0  0  0  0  0
    5.6473   -8.7216   15.3158 C   0  0  0  0  0  0  0  0  0  0  0  0
   10.7581   -3.1233   19.4720 N   0  0  0  0  0  0  0  0  0  0  0  0
    9.9571   -4.0573   16.8866 C   0  0  0  0  0  0  0  0  0  0  0  0
    7.6213   -6.5618   16.0087 C   0  0  0  0  0  0  0  0  0  0  0  0
   10.8583   -2.6527   20.7222 C   0  0  0  0  0  0  0  0  0  0  0  0
   10.6412   -3.5089   21.7936 C   0  0  0  0  0  0  0  0  0  0  0  0
   10.4972   -3.8968   24.1589 C   0  0  0  0  0  0  0  0  0  0  0  0
    5.9260   -8.2736   16.5517 C   0  0  0  0  0  0  0  0  0  0  0  0
    3.8816   -9.1166   17.2493 C   0  0  0  0  0  0  0  0  0  0  0  0
   10.1297   -1.6575   23.2324 C   0  0  0  0  0  0  0  0  0  0  0  0
    9.4684   -1.6929   26.7263 F   0  0  0  0  0  0  0  0  0  0  0  0
    7.7963   -7.7906   17.9837 C   0  0  0  0  0  0  0  0  0  0  0  0
   10.5884   -3.0725   16.7902 O   0  0  0  0  0  0  0  0  0  0  0  0
   10.4323   -5.3494   20.3516 C   0  0  0  0  0  0  0  0  0  0  0  0
    7.1156   -7.5454   16.8218 C   0  0  0  0  0  0  0  0  0  0  0  0
   10.3885   -4.4388   19.2773 C   0  0  0  0  0  0  0  0  0  0  0  0
    4.5160   -9.3822   15.0841 C   0  0  0  0  0  0  0  0  0  0  0  0
  1  3  4  0
  1 24  4  0
  2  6  4  0
  2 15  4  0
  3  5  4  0
  3  6  4  0
  4 21  4  0
  4 29  4  0
  5 15  4  0
  5 28  1  0
  6 16  4  0
  7 18  4  0
  7 26  4  0
  8 18  1  0
  8 19  4  0
  8 22  4  0
  9 12  4  0
  9 19  4  0
 10 12  4  0
 10 22  4  0
 11 20  4  0
 11 21  4  0
 12 23  1  0
 13 20  4  0
 13 29  4  0
 14 17  4  0
 14 28  4  0
 15 25  2  0
 16 27  4  0
 17 18  4  0
 20 27  1  0
 24 27  4  0
 26 28  4  0
M  END
$$$$

 Created by Python create_sdf_string function

 29 33  0  0  0  0  0  0  0  0999 V2000
    8.8270   -7.0288   18.4251 C   0  0  0  0  0  0  0  0  0  0  0  0
    9.1576   -4.6236   15.8860 O   0  0  0  0  0  0  0  0  0  0  0  0
    9.1509   -5.9108   17.7177 C   0  0  0  0  0  0  0  0  0  0  0  0
    3.6373   -9.5349   16.0582 N   0  0  0  0  0  0  0  0  0  0  0  0
    9.9275   -4.8001   18.0438 N   0  0  0  0  0  0  0  0  0  0  0  0
    8.5908   -5.7425   16.4412 C   0  0  0  0  0  0  0  0  0  0  0  0
   10.5993   -4.8981   21.6068 C   0  0  0  0  0  0  0  0  0  0  0  0
   10.4258   -3.0106   23.0998 C   0  0  0  0  0  0  0  0  0  0  0  0
   10.2148   -3.4364   25.4200 C   0  0  0  0  0  0  0  0  0  0  0  0
    9.7853   -1.1840   24.4927 C   0  0  0  0  0  0  0  0  0  0  0  0
    5.0276   -8.5227   17.5352 C   0  0  0  0  0  0  0  0  0  0  0  0
    9.8187   -2.0895   25.5800 C   0  0  0  0  0  0  0  0  0  0  0  0
    5.6473   -8.7216   15.3158 C   0  0  0  0  0  0  0  0  0  0  0  0
   10.7581   -3.1233   19.4720 N   0  0  0  0  0  0  0  0  0  0  0  0
    9.9571   -4.0573   16.8866 C   0  0  0  0  0  0  0  0  0  0  0  0
    7.6213   -6.5618   16.0087 C   0  0  0  0  0  0  0  0  0  0  0  0
   10.8583   -2.6527   20.7222 C   0  0  0  0  0  0  0  0  0  0  0  0
   10.6412   -3.5089   21.7936 C   0  0  0  0  0  0  0  0  0  0  0  0
   10.4972   -3.8968   24.1589 C   0  0  0  0  0  0  0  0  0  0  0  0
    5.9260   -8.2736   16.5517 C   0  0  0  0  0  0  0  0  0  0  0  0
    3.8816   -9.1166   17.2493 C   0  0  0  0  0  0  0  0  0  0  0  0
   10.1297   -1.6575   23.2324 C   0  0  0  0  0  0  0  0  0  0  0  0
    9.4684   -1.6929   26.7263 F   0  0  0  0  0  0  0  0  0  0  0  0
    7.7963   -7.7906   17.9837 C   0  0  0  0  0  0  0  0  0  0  0  0
   10.5884   -3.0725   16.7902 O   0  0  0  0  0  0  0  0  0  0  0  0
   10.4323   -5.3494   20.3516 C   0  0  0  0  0  0  0  0  0  0  0  0
    7.1156   -7.5454   16.8218 C   0  0  0  0  0  0  0  0  0  0  0  0
   10.3885   -4.4388   19.2773 C   0  0  0  0  0  0  0  0  0  0  0  0
    4.5160   -9.3822   15.0841 C   0  0  0  0  0  0  0  0  0  0  0  0
  1  3  4  0
  1 24  4  0
  2  6  4  0
  2 15  4  0
  3  5  4  0
  3  6  4  0
  4 21  4  0
  4 29  4  0
  5 15  4  0
  5 28  1  0
  6 16  4  0
  7 18  4  0
  7 26  4  0
  8 18  1  0
  8 19  4  0
  8 22  4  0
  9 12  4  0
  9 19  4  0
 10 12  4  0
 10 22  4  0
 11 20  4  0
 11 21  4  0
 12 23  1  0
 13 20  4  0
 13 29  4  0
 14 17  4  0
 14 28  4  0
 15 25  2  0
 16 27  4  0
 17 18  4  0
 20 27  1  0
 24 27  4  0
 26 28  4  0
M  END
$$$$

 Created by Python create_sdf_string function

 29 33  0  0  0  0  0  0  0  0999 V2000
    8.8270   -7.0288   18.4251 C   0  0  0  0  0  0  0  0  0  0  0  0
    9.1576   -4.6236   15.8860 O   0  0  0  0  0  0  0  0  0  0  0  0
    9.1509   -5.9108   17.7177 C   0  0  0  0  0  0  0  0  0  0  0  0
    3.6373   -9.5349   16.0582 N   0  0  0  0  0  0  0  0  0  0  0  0
    9.9275   -4.8001   18.0438 N   0  0  0  0  0  0  0  0  0  0  0  0
    8.5908   -5.7425   16.4412 C   0  0  0  0  0  0  0  0  0  0  0  0
   10.5993   -4.8981   21.6068 C   0  0  0  0  0  0  0  0  0  0  0  0
   10.4258   -3.0106   23.0998 C   0  0  0  0  0  0  0  0  0  0  0  0
   10.2148   -3.4364   25.4200 C   0  0  0  0  0  0  0  0  0  0  0  0
    9.7853   -1.1840   24.4927 C   0  0  0  0  0  0  0  0  0  0  0  0
    5.0276   -8.5227   17.5352 C   0  0  0  0  0  0  0  0  0  0  0  0
    9.8187   -2.0895   25.5800 C   0  0  0  0  0  0  0  0  0  0  0  0
    5.6473   -8.7216   15.3158 C   0  0  0  0  0  0  0  0  0  0  0  0
   10.7581   -3.1233   19.4720 N   0  0  0  0  0  0  0  0  0  0  0  0
    9.9571   -4.0573   16.8866 C   0  0  0  0  0  0  0  0  0  0  0  0
    7.6213   -6.5618   16.0087 C   0  0  0  0  0  0  0  0  0  0  0  0
   10.8583   -2.6527   20.7222 C   0  0  0  0  0  0  0  0  0  0  0  0
   10.6412   -3.5089   21.7936 C   0  0  0  0  0  0  0  0  0  0  0  0
   10.4972   -3.8968   24.1589 C   0  0  0  0  0  0  0  0  0  0  0  0
    5.9260   -8.2736   16.5517 C   0  0  0  0  0  0  0  0  0  0  0  0
    3.8816   -9.1166   17.2493 C   0  0  0  0  0  0  0  0  0  0  0  0
   10.1297   -1.6575   23.2324 C   0  0  0  0  0  0  0  0  0  0  0  0
    9.4684   -1.6929   26.7263 F   0  0  0  0  0  0  0  0  0  0  0  0
    7.7963   -7.7906   17.9837 C   0  0  0  0  0  0  0  0  0  0  0  0
   10.5884   -3.0725   16.7902 O   0  0  0  0  0  0  0  0  0  0  0  0
   10.4323   -5.3494   20.3516 C   0  0  0  0  0  0  0  0  0  0  0  0
    7.1156   -7.5454   16.8218 C   0  0  0  0  0  0  0  0  0  0  0  0
   10.3885   -4.4388   19.2773 C   0  0  0  0  0  0  0  0  0  0  0  0
    4.5160   -9.3822   15.0841 C   0  0  0  0  0  0  0  0  0  0  0  0
  1  3  4  0
  1 24  4  0
  2  6  4  0
  2 15  4  0
  3  5  4  0
  3  6  4  0
  4 21  4  0
  4 29  4  0
  5 15  4  0
  5 28  1  0
  6 16  4  0
  7 18  4  0
  7 26  4  0
  8 18  1  0
  8 19  4  0
  8 22  4  0
  9 12  4  0
  9 19  4  0
 10 12  4  0
 10 22  4  0
 11 20  4  0
 11 21  4  0
 12 23  1  0
 13 20  4  0
 13 29  4  0
 14 17  4  0
 14 28  4  0
 15 25  2  0
 16 27  4  0
 17 18  4  0
 20 27  1  0
 24 27  4  0
 26 28  4  0
M  END
$$$$

 Created by Python create_sdf_string function

 29 33  0  0  0  0  0  0  0  0999 V2000
    8.8270   -7.0288   18.4251 C   0  0  0  0  0  0  0  0  0  0  0  0
    9.1576   -4.6236   15.8860 O   0  0  0  0  0  0  0  0  0  0  0  0
    9.1509   -5.9108   17.7177 C   0  0  0  0  0  0  0  0  0  0  0  0
    3.6373   -9.5349   16.0582 N   0  0  0  0  0  0  0  0  0  0  0  0
    9.9275   -4.8001   18.0438 N   0  0  0  0  0  0  0  0  0  0  0  0
    8.5908   -5.7425   16.4412 C   0  0  0  0  0  0  0  0  0  0  0  0
   10.5993   -4.8981   21.6068 C   0  0  0  0  0  0  0  0  0  0  0  0
   10.4258   -3.0106   23.0998 C   0  0  0  0  0  0  0  0  0  0  0  0
   10.2148   -3.4364   25.4200 C   0  0  0  0  0  0  0  0  0  0  0  0
    9.7853   -1.1840   24.4927 C   0  0  0  0  0  0  0  0  0  0  0  0
    5.0276   -8.5227   17.5352 C   0  0  0  0  0  0  0  0  0  0  0  0
    9.8187   -2.0895   25.5800 C   0  0  0  0  0  0  0  0  0  0  0  0
    5.6473   -8.7216   15.3158 C   0  0  0  0  0  0  0  0  0  0  0  0
   10.7581   -3.1233   19.4720 N   0  0  0  0  0  0  0  0  0  0  0  0
    9.9571   -4.0573   16.8866 C   0  0  0  0  0  0  0  0  0  0  0  0
    7.6213   -6.5618   16.0087 C   0  0  0  0  0  0  0  0  0  0  0  0
   10.8583   -2.6527   20.7222 C   0  0  0  0  0  0  0  0  0  0  0  0
   10.6412   -3.5089   21.7936 C   0  0  0  0  0  0  0  0  0  0  0  0
   10.4972   -3.8968   24.1589 C   0  0  0  0  0  0  0  0  0  0  0  0
    5.9260   -8.2736   16.5517 C   0  0  0  0  0  0  0  0  0  0  0  0
    3.8816   -9.1166   17.2493 C   0  0  0  0  0  0  0  0  0  0  0  0
   10.1297   -1.6575   23.2324 C   0  0  0  0  0  0  0  0  0  0  0  0
    9.4684   -1.6929   26.7263 F   0  0  0  0  0  0  0  0  0  0  0  0
    7.7963   -7.7906   17.9837 C   0  0  0  0  0  0  0  0  0  0  0  0
   10.5884   -3.0725   16.7902 O   0  0  0  0  0  0  0  0  0  0  0  0
   10.4323   -5.3494   20.3516 C   0  0  0  0  0  0  0  0  0  0  0  0
    7.1156   -7.5454   16.8218 C   0  0  0  0  0  0  0  0  0  0  0  0
   10.3885   -4.4388   19.2773 C   0  0  0  0  0  0  0  0  0  0  0  0
    4.5160   -9.3822   15.0841 C   0  0  0  0  0  0  0  0  0  0  0  0
  1  3  4  0
  1 24  4  0
  2  6  4  0
  2 15  4  0
  3  5  4  0
  3  6  4  0
  4 21  4  0
  4 29  4  0
  5 15  4  0
  5 28  1  0
  6 16  4  0
  7 18  4  0
  7 26  4  0
  8 18  1  0
  8 19  4  0
  8 22  4  0
  9 12  4  0
  9 19  4  0
 10 12  4  0
 10 22  4  0
 11 20  4  0
 11 21  4  0
 12 23  1  0
 13 20  4  0
 13 29  4  0
 14 17  4  0
 14 28  4  0
 15 25  2  0
 16 27  4  0
 17 18  4  0
 20 27  1  0
 24 27  4  0
 26 28  4  0
M  END
$$$$

 Created by Python create_sdf_string function

 29 33  0  0  0  0  0  0  0  0999 V2000
    8.8270   -7.0288   18.4251 C   0  0  0  0  0  0  0  0  0  0  0  0
    9.1576   -4.6236   15.8860 O   0  0  0  0  0  0  0  0  0  0  0  0
    9.1509   -5.9108   17.7177 C   0  0  0  0  0  0  0  0  0  0  0  0
    3.6373   -9.5349   16.0582 N   0  0  0  0  0  0  0  0  0  0  0  0
    9.9275   -4.8001   18.0438 N   0  0  0  0  0  0  0  0  0  0  0  0
    8.5908   -5.7425   16.4412 C   0  0  0  0  0  0  0  0  0  0  0  0
   10.5993   -4.8981   21.6068 C   0  0  0  0  0  0  0  0  0  0  0  0
   10.4258   -3.0106   23.0998 C   0  0  0  0  0  0  0  0  0  0  0  0
   10.2148   -3.4364   25.4200 C   0  0  0  0  0  0  0  0  0  0  0  0
    9.7853   -1.1840   24.4927 C   0  0  0  0  0  0  0  0  0  0  0  0
    5.0276   -8.5227   17.5352 C   0  0  0  0  0  0  0  0  0  0  0  0
    9.8187   -2.0895   25.5800 C   0  0  0  0  0  0  0  0  0  0  0  0
    5.6473   -8.7216   15.3158 C   0  0  0  0  0  0  0  0  0  0  0  0
   10.7581   -3.1233   19.4720 N   0  0  0  0  0  0  0  0  0  0  0  0
    9.9571   -4.0573   16.8866 C   0  0  0  0  0  0  0  0  0  0  0  0
    7.6213   -6.5618   16.0087 C   0  0  0  0  0  0  0  0  0  0  0  0
   10.8583   -2.6527   20.7222 C   0  0  0  0  0  0  0  0  0  0  0  0
   10.6412   -3.5089   21.7936 C   0  0  0  0  0  0  0  0  0  0  0  0
   10.4972   -3.8968   24.1589 C   0  0  0  0  0  0  0  0  0  0  0  0
    5.9260   -8.2736   16.5517 C   0  0  0  0  0  0  0  0  0  0  0  0
    3.8816   -9.1166   17.2493 C   0  0  0  0  0  0  0  0  0  0  0  0
   10.1297   -1.6575   23.2324 C   0  0  0  0  0  0  0  0  0  0  0  0
    9.4684   -1.6929   26.7263 F   0  0  0  0  0  0  0  0  0  0  0  0
    7.7963   -7.7906   17.9837 C   0  0  0  0  0  0  0  0  0  0  0  0
   10.5884   -3.0725   16.7902 O   0  0  0  0  0  0  0  0  0  0  0  0
   10.4323   -5.3494   20.3516 C   0  0  0  0  0  0  0  0  0  0  0  0
    7.1156   -7.5454   16.8218 C   0  0  0  0  0  0  0  0  0  0  0  0
   10.3885   -4.4388   19.2773 C   0  0  0  0  0  0  0  0  0  0  0  0
    4.5160   -9.3822   15.0841 C   0  0  0  0  0  0  0  0  0  0  0  0
  1  3  4  0
  1 24  4  0
  2  6  4  0
  2 15  4  0
  3  5  4  0
  3  6  4  0
  4 21  4  0
  4 29  4  0
  5 15  4  0
  5 28  1  0
  6 16  4  0
  7 18  4  0
  7 26  4  0
  8 18  1  0
  8 19  4  0
  8 22  4  0
  9 12  4  0
  9 19  4  0
 10 12  4  0
 10 22  4  0
 11 20  4  0
 11 21  4  0
 12 23  1  0
 13 20  4  0
 13 29  4  0
 14 17  4  0
 14 28  4  0
 15 25  2  0
 16 27  4  0
 17 18  4  0
 20 27  1  0
 24 27  4  0
 26 28  4  0
M  END
$$$$

 Created by Python create_sdf_string function

 29 33  0  0  0  0  0  0  0  0999 V2000
    8.8270   -7.0288   18.4251 C   0  0  0  0  0  0  0  0  0  0  0  0
    9.1576   -4.6236   15.8860 O   0  0  0  0  0  0  0  0  0  0  0  0
    9.1509   -5.9108   17.7177 C   0  0  0  0  0  0  0  0  0  0  0  0
    3.6373   -9.5349   16.0582 N   0  0  0  0  0  0  0  0  0  0  0  0
    9.9275   -4.8001   18.0438 N   0  0  0  0  0  0  0  0  0  0  0  0
    8.5908   -5.7425   16.4412 C   0  0  0  0  0  0  0  0  0  0  0  0
   10.5993   -4.8981   21.6068 C   0  0  0  0  0  0  0  0  0  0  0  0
   10.4258   -3.0106   23.0998 C   0  0  0  0  0  0  0  0  0  0  0  0
   10.2148   -3.4364   25.4200 C   0  0  0  0  0  0  0  0  0  0  0  0
    9.7853   -1.1840   24.4927 C   0  0  0  0  0  0  0  0  0  0  0  0
    5.0276   -8.5227   17.5352 C   0  0  0  0  0  0  0  0  0  0  0  0
    9.8187   -2.0895   25.5800 C   0  0  0  0  0  0  0  0  0  0  0  0
    5.6473   -8.7216   15.3158 C   0  0  0  0  0  0  0  0  0  0  0  0
   10.7581   -3.1233   19.4720 N   0  0  0  0  0  0  0  0  0  0  0  0
    9.9571   -4.0573   16.8866 C   0  0  0  0  0  0  0  0  0  0  0  0
    7.6213   -6.5618   16.0087 C   0  0  0  0  0  0  0  0  0  0  0  0
   10.8583   -2.6527   20.7222 C   0  0  0  0  0  0  0  0  0  0  0  0
   10.6412   -3.5089   21.7936 C   0  0  0  0  0  0  0  0  0  0  0  0
   10.4972   -3.8968   24.1589 C   0  0  0  0  0  0  0  0  0  0  0  0
    5.9260   -8.2736   16.5517 C   0  0  0  0  0  0  0  0  0  0  0  0
    3.8816   -9.1166   17.2493 C   0  0  0  0  0  0  0  0  0  0  0  0
   10.1297   -1.6575   23.2324 C   0  0  0  0  0  0  0  0  0  0  0  0
    9.4684   -1.6929   26.7263 F   0  0  0  0  0  0  0  0  0  0  0  0
    7.7963   -7.7906   17.9837 C   0  0  0  0  0  0  0  0  0  0  0  0
   10.5884   -3.0725   16.7902 O   0  0  0  0  0  0  0  0  0  0  0  0
   10.4323   -5.3494   20.3516 C   0  0  0  0  0  0  0  0  0  0  0  0
    7.1156   -7.5454   16.8218 C   0  0  0  0  0  0  0  0  0  0  0  0
   10.3885   -4.4388   19.2773 C   0  0  0  0  0  0  0  0  0  0  0  0
    4.5160   -9.3822   15.0841 C   0  0  0  0  0  0  0  0  0  0  0  0
  1  3  4  0
  1 24  4  0
  2  6  4  0
  2 15  4  0
  3  5  4  0
  3  6  4  0
  4 21  4  0
  4 29  4  0
  5 15  4  0
  5 28  1  0
  6 16  4  0
  7 18  4  0
  7 26  4  0
  8 18  1  0
  8 19  4  0
  8 22  4  0
  9 12  4  0
  9 19  4  0
 10 12  4  0
 10 22  4  0
 11 20  4  0
 11 21  4  0
 12 23  1  0
 13 20  4  0
 13 29  4  0
 14 17  4  0
 14 28  4  0
 15 25  2  0
 16 27  4  0
 17 18  4  0
 20 27  1  0
 24 27  4  0
 26 28  4  0
M  END
$$$$

 Created by Python create_sdf_string function

 29 33  0  0  0  0  0  0  0  0999 V2000
    8.8270   -7.0288   18.4251 C   0  0  0  0  0  0  0  0  0  0  0  0
    9.1576   -4.6236   15.8860 O   0  0  0  0  0  0  0  0  0  0  0  0
    9.1509   -5.9108   17.7177 C   0  0  0  0  0  0  0  0  0  0  0  0
    3.6373   -9.5349   16.0582 N   0  0  0  0  0  0  0  0  0  0  0  0
    9.9275   -4.8001   18.0438 N   0  0  0  0  0  0  0  0  0  0  0  0
    8.5908   -5.7425   16.4412 C   0  0  0  0  0  0  0  0  0  0  0  0
   10.5993   -4.8981   21.6068 C   0  0  0  0  0  0  0  0  0  0  0  0
   10.4258   -3.0106   23.0998 C   0  0  0  0  0  0  0  0  0  0  0  0
   10.2148   -3.4364   25.4200 C   0  0  0  0  0  0  0  0  0  0  0  0
    9.7853   -1.1840   24.4927 C   0  0  0  0  0  0  0  0  0  0  0  0
    5.0276   -8.5227   17.5352 C   0  0  0  0  0  0  0  0  0  0  0  0
    9.8187   -2.0895   25.5800 C   0  0  0  0  0  0  0  0  0  0  0  0
    5.6473   -8.7216   15.3158 C   0  0  0  0  0  0  0  0  0  0  0  0
   10.7581   -3.1233   19.4720 N   0  0  0  0  0  0  0  0  0  0  0  0
    9.9571   -4.0573   16.8866 C   0  0  0  0  0  0  0  0  0  0  0  0
    7.6213   -6.5618   16.0087 C   0  0  0  0  0  0  0  0  0  0  0  0
   10.8583   -2.6527   20.7222 C   0  0  0  0  0  0  0  0  0  0  0  0
   10.6412   -3.5089   21.7936 C   0  0  0  0  0  0  0  0  0  0  0  0
   10.4972   -3.8968   24.1589 C   0  0  0  0  0  0  0  0  0  0  0  0
    5.9260   -8.2736   16.5517 C   0  0  0  0  0  0  0  0  0  0  0  0
    3.8816   -9.1166   17.2493 C   0  0  0  0  0  0  0  0  0  0  0  0
   10.1297   -1.6575   23.2324 C   0  0  0  0  0  0  0  0  0  0  0  0
    9.4684   -1.6929   26.7263 F   0  0  0  0  0  0  0  0  0  0  0  0
    7.7963   -7.7906   17.9837 C   0  0  0  0  0  0  0  0  0  0  0  0
   10.5884   -3.0725   16.7902 O   0  0  0  0  0  0  0  0  0  0  0  0
   10.4323   -5.3494   20.3516 C   0  0  0  0  0  0  0  0  0  0  0  0
    7.1156   -7.5454   16.8218 C   0  0  0  0  0  0  0  0  0  0  0  0
   10.3885   -4.4388   19.2773 C   0  0  0  0  0  0  0  0  0  0  0  0
    4.5160   -9.3822   15.0841 C   0  0  0  0  0  0  0  0  0  0  0  0
  1  3  4  0
  1 24  4  0
  2  6  4  0
  2 15  4  0
  3  5  4  0
  3  6  4  0
  4 21  4  0
  4 29  4  0
  5 15  4  0
  5 28  1  0
  6 16  4  0
  7 18  4  0
  7 26  4  0
  8 18  1  0
  8 19  4  0
  8 22  4  0
  9 12  4  0
  9 19  4  0
 10 12  4  0
 10 22  4  0
 11 20  4  0
 11 21  4  0
 12 23  1  0
 13 20  4  0
 13 29  4  0
 14 17  4  0
 14 28  4  0
 15 25  2  0
 16 27  4  0
 17 18  4  0
 20 27  1  0
 24 27  4  0
 26 28  4  0
M  END
$$$$

 Created by Python create_sdf_string function

 29 33  0  0  0  0  0  0  0  0999 V2000
    8.8270   -7.0288   18.4251 C   0  0  0  0  0  0  0  0  0  0  0  0
    9.1576   -4.6236   15.8860 O   0  0  0  0  0  0  0  0  0  0  0  0
    9.1509   -5.9108   17.7177 C   0  0  0  0  0  0  0  0  0  0  0  0
    3.6373   -9.5349   16.0582 N   0  0  0  0  0  0  0  0  0  0  0  0
    9.9275   -4.8001   18.0438 N   0  0  0  0  0  0  0  0  0  0  0  0
    8.5908   -5.7425   16.4412 C   0  0  0  0  0  0  0  0  0  0  0  0
   10.5993   -4.8981   21.6068 C   0  0  0  0  0  0  0  0  0  0  0  0
   10.4258   -3.0106   23.0998 C   0  0  0  0  0  0  0  0  0  0  0  0
   10.2148   -3.4364   25.4200 C   0  0  0  0  0  0  0  0  0  0  0  0
    9.7853   -1.1840   24.4927 C   0  0  0  0  0  0  0  0  0  0  0  0
    5.0276   -8.5227   17.5352 C   0  0  0  0  0  0  0  0  0  0  0  0
    9.8187   -2.0895   25.5800 C   0  0  0  0  0  0  0  0  0  0  0  0
    5.6473   -8.7216   15.3158 C   0  0  0  0  0  0  0  0  0  0  0  0
   10.7581   -3.1233   19.4720 N   0  0  0  0  0  0  0  0  0  0  0  0
    9.9571   -4.0573   16.8866 C   0  0  0  0  0  0  0  0  0  0  0  0
    7.6213   -6.5618   16.0087 C   0  0  0  0  0  0  0  0  0  0  0  0
   10.8583   -2.6527   20.7222 C   0  0  0  0  0  0  0  0  0  0  0  0
   10.6412   -3.5089   21.7936 C   0  0  0  0  0  0  0  0  0  0  0  0
   10.4972   -3.8968   24.1589 C   0  0  0  0  0  0  0  0  0  0  0  0
    5.9260   -8.2736   16.5517 C   0  0  0  0  0  0  0  0  0  0  0  0
    3.8816   -9.1166   17.2493 C   0  0  0  0  0  0  0  0  0  0  0  0
   10.1297   -1.6575   23.2324 C   0  0  0  0  0  0  0  0  0  0  0  0
    9.4684   -1.6929   26.7263 F   0  0  0  0  0  0  0  0  0  0  0  0
    7.7963   -7.7906   17.9837 C   0  0  0  0  0  0  0  0  0  0  0  0
   10.5884   -3.0725   16.7902 O   0  0  0  0  0  0  0  0  0  0  0  0
   10.4323   -5.3494   20.3516 C   0  0  0  0  0  0  0  0  0  0  0  0
    7.1156   -7.5454   16.8218 C   0  0  0  0  0  0  0  0  0  0  0  0
   10.3885   -4.4388   19.2773 C   0  0  0  0  0  0  0  0  0  0  0  0
    4.5160   -9.3822   15.0841 C   0  0  0  0  0  0  0  0  0  0  0  0
  1  3  4  0
  1 24  4  0
  2  6  4  0
  2 15  4  0
  3  5  4  0
  3  6  4  0
  4 21  4  0
  4 29  4  0
  5 15  4  0
  5 28  1  0
  6 16  4  0
  7 18  4  0
  7 26  4  0
  8 18  1  0
  8 19  4  0
  8 22  4  0
  9 12  4  0
  9 19  4  0
 10 12  4  0
 10 22  4  0
 11 20  4  0
 11 21  4  0
 12 23  1  0
 13 20  4  0
 13 29  4  0
 14 17  4  0
 14 28  4  0
 15 25  2  0
 16 27  4  0
 17 18  4  0
 20 27  1  0
 24 27  4  0
 26 28  4  0
M  END
$$$$

 Created by Python create_sdf_string function

 29 33  0  0  0  0  0  0  0  0999 V2000
    8.8270   -7.0288   18.4251 C   0  0  0  0  0  0  0  0  0  0  0  0
    9.1576   -4.6236   15.8860 O   0  0  0  0  0  0  0  0  0  0  0  0
    9.1509   -5.9108   17.7177 C   0  0  0  0  0  0  0  0  0  0  0  0
    3.6373   -9.5349   16.0582 N   0  0  0  0  0  0  0  0  0  0  0  0
    9.9275   -4.8001   18.0438 N   0  0  0  0  0  0  0  0  0  0  0  0
    8.5908   -5.7425   16.4412 C   0  0  0  0  0  0  0  0  0  0  0  0
   10.5993   -4.8981   21.6068 C   0  0  0  0  0  0  0  0  0  0  0  0
   10.4258   -3.0106   23.0998 C   0  0  0  0  0  0  0  0  0  0  0  0
   10.2148   -3.4364   25.4200 C   0  0  0  0  0  0  0  0  0  0  0  0
    9.7853   -1.1840   24.4927 C   0  0  0  0  0  0  0  0  0  0  0  0
    5.0276   -8.5227   17.5352 C   0  0  0  0  0  0  0  0  0  0  0  0
    9.8187   -2.0895   25.5800 C   0  0  0  0  0  0  0  0  0  0  0  0
    5.6473   -8.7216   15.3158 C   0  0  0  0  0  0  0  0  0  0  0  0
   10.7581   -3.1233   19.4720 N   0  0  0  0  0  0  0  0  0  0  0  0
    9.9571   -4.0573   16.8866 C   0  0  0  0  0  0  0  0  0  0  0  0
    7.6213   -6.5618   16.0087 C   0  0  0  0  0  0  0  0  0  0  0  0
   10.8583   -2.6527   20.7222 C   0  0  0  0  0  0  0  0  0  0  0  0
   10.6412   -3.5089   21.7936 C   0  0  0  0  0  0  0  0  0  0  0  0
   10.4972   -3.8968   24.1589 C   0  0  0  0  0  0  0  0  0  0  0  0
    5.9260   -8.2736   16.5517 C   0  0  0  0  0  0  0  0  0  0  0  0
    3.8816   -9.1166   17.2493 C   0  0  0  0  0  0  0  0  0  0  0  0
   10.1297   -1.6575   23.2324 C   0  0  0  0  0  0  0  0  0  0  0  0
    9.4684   -1.6929   26.7263 F   0  0  0  0  0  0  0  0  0  0  0  0
    7.7963   -7.7906   17.9837 C   0  0  0  0  0  0  0  0  0  0  0  0
   10.5884   -3.0725   16.7902 O   0  0  0  0  0  0  0  0  0  0  0  0
   10.4323   -5.3494   20.3516 C   0  0  0  0  0  0  0  0  0  0  0  0
    7.1156   -7.5454   16.8218 C   0  0  0  0  0  0  0  0  0  0  0  0
   10.3885   -4.4388   19.2773 C   0  0  0  0  0  0  0  0  0  0  0  0
    4.5160   -9.3822   15.0841 C   0  0  0  0  0  0  0  0  0  0  0  0
  1  3  4  0
  1 24  4  0
  2  6  4  0
  2 15  4  0
  3  5  4  0
  3  6  4  0
  4 21  4  0
  4 29  4  0
  5 15  4  0
  5 28  1  0
  6 16  4  0
  7 18  4  0
  7 26  4  0
  8 18  1  0
  8 19  4  0
  8 22  4  0
  9 12  4  0
  9 19  4  0
 10 12  4  0
 10 22  4  0
 11 20  4  0
 11 21  4  0
 12 23  1  0
 13 20  4  0
 13 29  4  0
 14 17  4  0
 14 28  4  0
 15 25  2  0
 16 27  4  0
 17 18  4  0
 20 27  1  0
 24 27  4  0
 26 28  4  0
M  END
$$$$

 Created by Python create_sdf_string function

 29 33  0  0  0  0  0  0  0  0999 V2000
    8.8270   -7.0288   18.4251 C   0  0  0  0  0  0  0  0  0  0  0  0
    9.1576   -4.6236   15.8860 O   0  0  0  0  0  0  0  0  0  0  0  0
    9.1509   -5.9108   17.7177 C   0  0  0  0  0  0  0  0  0  0  0  0
    3.6373   -9.5349   16.0582 N   0  0  0  0  0  0  0  0  0  0  0  0
    9.9275   -4.8001   18.0438 N   0  0  0  0  0  0  0  0  0  0  0  0
    8.5908   -5.7425   16.4412 C   0  0  0  0  0  0  0  0  0  0  0  0
   10.5993   -4.8981   21.6068 C   0  0  0  0  0  0  0  0  0  0  0  0
   10.4258   -3.0106   23.0998 C   0  0  0  0  0  0  0  0  0  0  0  0
   10.2148   -3.4364   25.4200 C   0  0  0  0  0  0  0  0  0  0  0  0
    9.7853   -1.1840   24.4927 C   0  0  0  0  0  0  0  0  0  0  0  0
    5.0276   -8.5227   17.5352 C   0  0  0  0  0  0  0  0  0  0  0  0
    9.8187   -2.0895   25.5800 C   0  0  0  0  0  0  0  0  0  0  0  0
    5.6473   -8.7216   15.3158 C   0  0  0  0  0  0  0  0  0  0  0  0
   10.7581   -3.1233   19.4720 N   0  0  0  0  0  0  0  0  0  0  0  0
    9.9571   -4.0573   16.8866 C   0  0  0  0  0  0  0  0  0  0  0  0
    7.6213   -6.5618   16.0087 C   0  0  0  0  0  0  0  0  0  0  0  0
   10.8583   -2.6527   20.7222 C   0  0  0  0  0  0  0  0  0  0  0  0
   10.6412   -3.5089   21.7936 C   0  0  0  0  0  0  0  0  0  0  0  0
   10.4972   -3.8968   24.1589 C   0  0  0  0  0  0  0  0  0  0  0  0
    5.9260   -8.2736   16.5517 C   0  0  0  0  0  0  0  0  0  0  0  0
    3.8816   -9.1166   17.2493 C   0  0  0  0  0  0  0  0  0  0  0  0
   10.1297   -1.6575   23.2324 C   0  0  0  0  0  0  0  0  0  0  0  0
    9.4684   -1.6929   26.7263 F   0  0  0  0  0  0  0  0  0  0  0  0
    7.7963   -7.7906   17.9837 C   0  0  0  0  0  0  0  0  0  0  0  0
   10.5884   -3.0725   16.7902 O   0  0  0  0  0  0  0  0  0  0  0  0
   10.4323   -5.3494   20.3516 C   0  0  0  0  0  0  0  0  0  0  0  0
    7.1156   -7.5454   16.8218 C   0  0  0  0  0  0  0  0  0  0  0  0
   10.3885   -4.4388   19.2773 C   0  0  0  0  0  0  0  0  0  0  0  0
    4.5160   -9.3822   15.0841 C   0  0  0  0  0  0  0  0  0  0  0  0
  1  3  4  0
  1 24  4  0
  2  6  4  0
  2 15  4  0
  3  5  4  0
  3  6  4  0
  4 21  4  0
  4 29  4  0
  5 15  4  0
  5 28  1  0
  6 16  4  0
  7 18  4  0
  7 26  4  0
  8 18  1  0
  8 19  4  0
  8 22  4  0
  9 12  4  0
  9 19  4  0
 10 12  4  0
 10 22  4  0
 11 20  4  0
 11 21  4  0
 12 23  1  0
 13 20  4  0
 13 29  4  0
 14 17  4  0
 14 28  4  0
 15 25  2  0
 16 27  4  0
 17 18  4  0
 20 27  1  0
 24 27  4  0
 26 28  4  0
M  END
$$$$

 Created by Python create_sdf_string function

 29 33  0  0  0  0  0  0  0  0999 V2000
    8.8270   -7.0288   18.4251 C   0  0  0  0  0  0  0  0  0  0  0  0
    9.1576   -4.6236   15.8860 O   0  0  0  0  0  0  0  0  0  0  0  0
    9.1509   -5.9108   17.7177 C   0  0  0  0  0  0  0  0  0  0  0  0
    3.6373   -9.5349   16.0582 N   0  0  0  0  0  0  0  0  0  0  0  0
    9.9275   -4.8001   18.0438 N   0  0  0  0  0  0  0  0  0  0  0  0
    8.5908   -5.7425   16.4412 C   0  0  0  0  0  0  0  0  0  0  0  0
   10.5993   -4.8981   21.6068 C   0  0  0  0  0  0  0  0  0  0  0  0
   10.4258   -3.0106   23.0998 C   0  0  0  0  0  0  0  0  0  0  0  0
   10.2148   -3.4364   25.4200 C   0  0  0  0  0  0  0  0  0  0  0  0
    9.7853   -1.1840   24.4927 C   0  0  0  0  0  0  0  0  0  0  0  0
    5.0276   -8.5227   17.5352 C   0  0  0  0  0  0  0  0  0  0  0  0
    9.8187   -2.0895   25.5800 C   0  0  0  0  0  0  0  0  0  0  0  0
    5.6473   -8.7216   15.3158 C   0  0  0  0  0  0  0  0  0  0  0  0
   10.7581   -3.1233   19.4720 N   0  0  0  0  0  0  0  0  0  0  0  0
    9.9571   -4.0573   16.8866 C   0  0  0  0  0  0  0  0  0  0  0  0
    7.6213   -6.5618   16.0087 C   0  0  0  0  0  0  0  0  0  0  0  0
   10.8583   -2.6527   20.7222 C   0  0  0  0  0  0  0  0  0  0  0  0
   10.6412   -3.5089   21.7936 C   0  0  0  0  0  0  0  0  0  0  0  0
   10.4972   -3.8968   24.1589 C   0  0  0  0  0  0  0  0  0  0  0  0
    5.9260   -8.2736   16.5517 C   0  0  0  0  0  0  0  0  0  0  0  0
    3.8816   -9.1166   17.2493 C   0  0  0  0  0  0  0  0  0  0  0  0
   10.1297   -1.6575   23.2324 C   0  0  0  0  0  0  0  0  0  0  0  0
    9.4684   -1.6929   26.7263 F   0  0  0  0  0  0  0  0  0  0  0  0
    7.7963   -7.7906   17.9837 C   0  0  0  0  0  0  0  0  0  0  0  0
   10.5884   -3.0725   16.7902 O   0  0  0  0  0  0  0  0  0  0  0  0
   10.4323   -5.3494   20.3516 C   0  0  0  0  0  0  0  0  0  0  0  0
    7.1156   -7.5454   16.8218 C   0  0  0  0  0  0  0  0  0  0  0  0
   10.3885   -4.4388   19.2773 C   0  0  0  0  0  0  0  0  0  0  0  0
    4.5160   -9.3822   15.0841 C   0  0  0  0  0  0  0  0  0  0  0  0
  1  3  4  0
  1 24  4  0
  2  6  4  0
  2 15  4  0
  3  5  4  0
  3  6  4  0
  4 21  4  0
  4 29  4  0
  5 15  4  0
  5 28  1  0
  6 16  4  0
  7 18  4  0
  7 26  4  0
  8 18  1  0
  8 19  4  0
  8 22  4  0
  9 12  4  0
  9 19  4  0
 10 12  4  0
 10 22  4  0
 11 20  4  0
 11 21  4  0
 12 23  1  0
 13 20  4  0
 13 29  4  0
 14 17  4  0
 14 28  4  0
 15 25  2  0
 16 27  4  0
 17 18  4  0
 20 27  1  0
 24 27  4  0
 26 28  4  0
M  END
$$$$

 Created by Python create_sdf_string function

 29 33  0  0  0  0  0  0  0  0999 V2000
    8.8270   -7.0288   18.4251 C   0  0  0  0  0  0  0  0  0  0  0  0
    9.1576   -4.6236   15.8860 O   0  0  0  0  0  0  0  0  0  0  0  0
    9.1509   -5.9108   17.7177 C   0  0  0  0  0  0  0  0  0  0  0  0
    3.6373   -9.5349   16.0582 N   0  0  0  0  0  0  0  0  0  0  0  0
    9.9275   -4.8001   18.0438 N   0  0  0  0  0  0  0  0  0  0  0  0
    8.5908   -5.7425   16.4412 C   0  0  0  0  0  0  0  0  0  0  0  0
   10.5993   -4.8981   21.6068 C   0  0  0  0  0  0  0  0  0  0  0  0
   10.4258   -3.0106   23.0998 C   0  0  0  0  0  0  0  0  0  0  0  0
   10.2148   -3.4364   25.4200 C   0  0  0  0  0  0  0  0  0  0  0  0
    9.7853   -1.1840   24.4927 C   0  0  0  0  0  0  0  0  0  0  0  0
    5.0276   -8.5227   17.5352 C   0  0  0  0  0  0  0  0  0  0  0  0
    9.8187   -2.0895   25.5800 C   0  0  0  0  0  0  0  0  0  0  0  0
    5.6473   -8.7216   15.3158 C   0  0  0  0  0  0  0  0  0  0  0  0
   10.7581   -3.1233   19.4720 N   0  0  0  0  0  0  0  0  0  0  0  0
    9.9571   -4.0573   16.8866 C   0  0  0  0  0  0  0  0  0  0  0  0
    7.6213   -6.5618   16.0087 C   0  0  0  0  0  0  0  0  0  0  0  0
   10.8583   -2.6527   20.7222 C   0  0  0  0  0  0  0  0  0  0  0  0
   10.6412   -3.5089   21.7936 C   0  0  0  0  0  0  0  0  0  0  0  0
   10.4972   -3.8968   24.1589 C   0  0  0  0  0  0  0  0  0  0  0  0
    5.9260   -8.2736   16.5517 C   0  0  0  0  0  0  0  0  0  0  0  0
    3.8816   -9.1166   17.2493 C   0  0  0  0  0  0  0  0  0  0  0  0
   10.1297   -1.6575   23.2324 C   0  0  0  0  0  0  0  0  0  0  0  0
    9.4684   -1.6929   26.7263 F   0  0  0  0  0  0  0  0  0  0  0  0
    7.7963   -7.7906   17.9837 C   0  0  0  0  0  0  0  0  0  0  0  0
   10.5884   -3.0725   16.7902 O   0  0  0  0  0  0  0  0  0  0  0  0
   10.4323   -5.3494   20.3516 C   0  0  0  0  0  0  0  0  0  0  0  0
    7.1156   -7.5454   16.8218 C   0  0  0  0  0  0  0  0  0  0  0  0
   10.3885   -4.4388   19.2773 C   0  0  0  0  0  0  0  0  0  0  0  0
    4.5160   -9.3822   15.0841 C   0  0  0  0  0  0  0  0  0  0  0  0
  1  3  4  0
  1 24  4  0
  2  6  4  0
  2 15  4  0
  3  5  4  0
  3  6  4  0
  4 21  4  0
  4 29  4  0
  5 15  4  0
  5 28  1  0
  6 16  4  0
  7 18  4  0
  7 26  4  0
  8 18  1  0
  8 19  4  0
  8 22  4  0
  9 12  4  0
  9 19  4  0
 10 12  4  0
 10 22  4  0
 11 20  4  0
 11 21  4  0
 12 23  1  0
 13 20  4  0
 13 29  4  0
 14 17  4  0
 14 28  4  0
 15 25  2  0
 16 27  4  0
 17 18  4  0
 20 27  1  0
 24 27  4  0
 26 28  4  0
M  END
$$$$

 Created by Python create_sdf_string function

 29 33  0  0  0  0  0  0  0  0999 V2000
    8.8270   -7.0288   18.4251 C   0  0  0  0  0  0  0  0  0  0  0  0
    9.1576   -4.6236   15.8860 O   0  0  0  0  0  0  0  0  0  0  0  0
    9.1509   -5.9108   17.7177 C   0  0  0  0  0  0  0  0  0  0  0  0
    3.6373   -9.5349   16.0582 N   0  0  0  0  0  0  0  0  0  0  0  0
    9.9275   -4.8001   18.0438 N   0  0  0  0  0  0  0  0  0  0  0  0
    8.5908   -5.7425   16.4412 C   0  0  0  0  0  0  0  0  0  0  0  0
   10.5993   -4.8981   21.6068 C   0  0  0  0  0  0  0  0  0  0  0  0
   10.4258   -3.0106   23.0998 C   0  0  0  0  0  0  0  0  0  0  0  0
   10.2148   -3.4364   25.4200 C   0  0  0  0  0  0  0  0  0  0  0  0
    9.7853   -1.1840   24.4927 C   0  0  0  0  0  0  0  0  0  0  0  0
    5.0276   -8.5227   17.5352 C   0  0  0  0  0  0  0  0  0  0  0  0
    9.8187   -2.0895   25.5800 C   0  0  0  0  0  0  0  0  0  0  0  0
    5.6473   -8.7216   15.3158 C   0  0  0  0  0  0  0  0  0  0  0  0
   10.7581   -3.1233   19.4720 N   0  0  0  0  0  0  0  0  0  0  0  0
    9.9571   -4.0573   16.8866 C   0  0  0  0  0  0  0  0  0  0  0  0
    7.6213   -6.5618   16.0087 C   0  0  0  0  0  0  0  0  0  0  0  0
   10.8583   -2.6527   20.7222 C   0  0  0  0  0  0  0  0  0  0  0  0
   10.6412   -3.5089   21.7936 C   0  0  0  0  0  0  0  0  0  0  0  0
   10.4972   -3.8968   24.1589 C   0  0  0  0  0  0  0  0  0  0  0  0
    5.9260   -8.2736   16.5517 C   0  0  0  0  0  0  0  0  0  0  0  0
    3.8816   -9.1166   17.2493 C   0  0  0  0  0  0  0  0  0  0  0  0
   10.1297   -1.6575   23.2324 C   0  0  0  0  0  0  0  0  0  0  0  0
    9.4684   -1.6929   26.7263 F   0  0  0  0  0  0  0  0  0  0  0  0
    7.7963   -7.7906   17.9837 C   0  0  0  0  0  0  0  0  0  0  0  0
   10.5884   -3.0725   16.7902 O   0  0  0  0  0  0  0  0  0  0  0  0
   10.4323   -5.3494   20.3516 C   0  0  0  0  0  0  0  0  0  0  0  0
    7.1156   -7.5454   16.8218 C   0  0  0  0  0  0  0  0  0  0  0  0
   10.3885   -4.4388   19.2773 C   0  0  0  0  0  0  0  0  0  0  0  0
    4.5160   -9.3822   15.0841 C   0  0  0  0  0  0  0  0  0  0  0  0
  1  3  4  0
  1 24  4  0
  2  6  4  0
  2 15  4  0
  3  5  4  0
  3  6  4  0
  4 21  4  0
  4 29  4  0
  5 15  4  0
  5 28  1  0
  6 16  4  0
  7 18  4  0
  7 26  4  0
  8 18  1  0
  8 19  4  0
  8 22  4  0
  9 12  4  0
  9 19  4  0
 10 12  4  0
 10 22  4  0
 11 20  4  0
 11 21  4  0
 12 23  1  0
 13 20  4  0
 13 29  4  0
 14 17  4  0
 14 28  4  0
 15 25  2  0
 16 27  4  0
 17 18  4  0
 20 27  1  0
 24 27  4  0
 26 28  4  0
M  END
$$$$

 Created by Python create_sdf_string function

 29 33  0  0  0  0  0  0  0  0999 V2000
    8.8270   -7.0288   18.4251 C   0  0  0  0  0  0  0  0  0  0  0  0
    9.1576   -4.6236   15.8860 O   0  0  0  0  0  0  0  0  0  0  0  0
    9.1509   -5.9108   17.7177 C   0  0  0  0  0  0  0  0  0  0  0  0
    3.6373   -9.5349   16.0582 N   0  0  0  0  0  0  0  0  0  0  0  0
    9.9275   -4.8001   18.0438 N   0  0  0  0  0  0  0  0  0  0  0  0
    8.5908   -5.7425   16.4412 C   0  0  0  0  0  0  0  0  0  0  0  0
   10.5993   -4.8981   21.6068 C   0  0  0  0  0  0  0  0  0  0  0  0
   10.4258   -3.0106   23.0998 C   0  0  0  0  0  0  0  0  0  0  0  0
   10.2148   -3.4364   25.4200 C   0  0  0  0  0  0  0  0  0  0  0  0
    9.7853   -1.1840   24.4927 C   0  0  0  0  0  0  0  0  0  0  0  0
    5.0276   -8.5227   17.5352 C   0  0  0  0  0  0  0  0  0  0  0  0
    9.8187   -2.0895   25.5800 C   0  0  0  0  0  0  0  0  0  0  0  0
    5.6473   -8.7216   15.3158 C   0  0  0  0  0  0  0  0  0  0  0  0
   10.7581   -3.1233   19.4720 N   0  0  0  0  0  0  0  0  0  0  0  0
    9.9571   -4.0573   16.8866 C   0  0  0  0  0  0  0  0  0  0  0  0
    7.6213   -6.5618   16.0087 C   0  0  0  0  0  0  0  0  0  0  0  0
   10.8583   -2.6527   20.7222 C   0  0  0  0  0  0  0  0  0  0  0  0
   10.6412   -3.5089   21.7936 C   0  0  0  0  0  0  0  0  0  0  0  0
   10.4972   -3.8968   24.1589 C   0  0  0  0  0  0  0  0  0  0  0  0
    5.9260   -8.2736   16.5517 C   0  0  0  0  0  0  0  0  0  0  0  0
    3.8816   -9.1166   17.2493 C   0  0  0  0  0  0  0  0  0  0  0  0
   10.1297   -1.6575   23.2324 C   0  0  0  0  0  0  0  0  0  0  0  0
    9.4684   -1.6929   26.7263 F   0  0  0  0  0  0  0  0  0  0  0  0
    7.7963   -7.7906   17.9837 C   0  0  0  0  0  0  0  0  0  0  0  0
   10.5884   -3.0725   16.7902 O   0  0  0  0  0  0  0  0  0  0  0  0
   10.4323   -5.3494   20.3516 C   0  0  0  0  0  0  0  0  0  0  0  0
    7.1156   -7.5454   16.8218 C   0  0  0  0  0  0  0  0  0  0  0  0
   10.3885   -4.4388   19.2773 C   0  0  0  0  0  0  0  0  0  0  0  0
    4.5160   -9.3822   15.0841 C   0  0  0  0  0  0  0  0  0  0  0  0
  1  3  4  0
  1 24  4  0
  2  6  4  0
  2 15  4  0
  3  5  4  0
  3  6  4  0
  4 21  4  0
  4 29  4  0
  5 15  4  0
  5 28  1  0
  6 16  4  0
  7 18  4  0
  7 26  4  0
  8 18  1  0
  8 19  4  0
  8 22  4  0
  9 12  4  0
  9 19  4  0
 10 12  4  0
 10 22  4  0
 11 20  4  0
 11 21  4  0
 12 23  1  0
 13 20  4  0
 13 29  4  0
 14 17  4  0
 14 28  4  0
 15 25  2  0
 16 27  4  0
 17 18  4  0
 20 27  1  0
 24 27  4  0
 26 28  4  0
M  END
$$$$

 Created by Python create_sdf_string function

 29 33  0  0  0  0  0  0  0  0999 V2000
    8.8270   -7.0288   18.4251 C   0  0  0  0  0  0  0  0  0  0  0  0
    9.1576   -4.6236   15.8860 O   0  0  0  0  0  0  0  0  0  0  0  0
    9.1509   -5.9108   17.7177 C   0  0  0  0  0  0  0  0  0  0  0  0
    3.6373   -9.5349   16.0582 N   0  0  0  0  0  0  0  0  0  0  0  0
    9.9275   -4.8001   18.0438 N   0  0  0  0  0  0  0  0  0  0  0  0
    8.5908   -5.7425   16.4412 C   0  0  0  0  0  0  0  0  0  0  0  0
   10.5993   -4.8981   21.6068 C   0  0  0  0  0  0  0  0  0  0  0  0
   10.4258   -3.0106   23.0998 C   0  0  0  0  0  0  0  0  0  0  0  0
   10.2148   -3.4364   25.4200 C   0  0  0  0  0  0  0  0  0  0  0  0
    9.7853   -1.1840   24.4927 C   0  0  0  0  0  0  0  0  0  0  0  0
    5.0276   -8.5227   17.5352 C   0  0  0  0  0  0  0  0  0  0  0  0
    9.8187   -2.0895   25.5800 C   0  0  0  0  0  0  0  0  0  0  0  0
    5.6473   -8.7216   15.3158 C   0  0  0  0  0  0  0  0  0  0  0  0
   10.7581   -3.1233   19.4720 N   0  0  0  0  0  0  0  0  0  0  0  0
    9.9571   -4.0573   16.8866 C   0  0  0  0  0  0  0  0  0  0  0  0
    7.6213   -6.5618   16.0087 C   0  0  0  0  0  0  0  0  0  0  0  0
   10.8583   -2.6527   20.7222 C   0  0  0  0  0  0  0  0  0  0  0  0
   10.6412   -3.5089   21.7936 C   0  0  0  0  0  0  0  0  0  0  0  0
   10.4972   -3.8968   24.1589 C   0  0  0  0  0  0  0  0  0  0  0  0
    5.9260   -8.2736   16.5517 C   0  0  0  0  0  0  0  0  0  0  0  0
    3.8816   -9.1166   17.2493 C   0  0  0  0  0  0  0  0  0  0  0  0
   10.1297   -1.6575   23.2324 C   0  0  0  0  0  0  0  0  0  0  0  0
    9.4684   -1.6929   26.7263 F   0  0  0  0  0  0  0  0  0  0  0  0
    7.7963   -7.7906   17.9837 C   0  0  0  0  0  0  0  0  0  0  0  0
   10.5884   -3.0725   16.7902 O   0  0  0  0  0  0  0  0  0  0  0  0
   10.4323   -5.3494   20.3516 C   0  0  0  0  0  0  0  0  0  0  0  0
    7.1156   -7.5454   16.8218 C   0  0  0  0  0  0  0  0  0  0  0  0
   10.3885   -4.4388   19.2773 C   0  0  0  0  0  0  0  0  0  0  0  0
    4.5160   -9.3822   15.0841 C   0  0  0  0  0  0  0  0  0  0  0  0
  1  3  4  0
  1 24  4  0
  2  6  4  0
  2 15  4  0
  3  5  4  0
  3  6  4  0
  4 21  4  0
  4 29  4  0
  5 15  4  0
  5 28  1  0
  6 16  4  0
  7 18  4  0
  7 26  4  0
  8 18  1  0
  8 19  4  0
  8 22  4  0
  9 12  4  0
  9 19  4  0
 10 12  4  0
 10 22  4  0
 11 20  4  0
 11 21  4  0
 12 23  1  0
 13 20  4  0
 13 29  4  0
 14 17  4  0
 14 28  4  0
 15 25  2  0
 16 27  4  0
 17 18  4  0
 20 27  1  0
 24 27  4  0
 26 28  4  0
M  END
$$$$

 Created by Python create_sdf_string function

 29 33  0  0  0  0  0  0  0  0999 V2000
    8.8270   -7.0288   18.4251 C   0  0  0  0  0  0  0  0  0  0  0  0
    9.1576   -4.6236   15.8860 O   0  0  0  0  0  0  0  0  0  0  0  0
    9.1509   -5.9108   17.7177 C   0  0  0  0  0  0  0  0  0  0  0  0
    3.6373   -9.5349   16.0582 N   0  0  0  0  0  0  0  0  0  0  0  0
    9.9275   -4.8001   18.0438 N   0  0  0  0  0  0  0  0  0  0  0  0
    8.5908   -5.7425   16.4412 C   0  0  0  0  0  0  0  0  0  0  0  0
   10.5993   -4.8981   21.6068 C   0  0  0  0  0  0  0  0  0  0  0  0
   10.4258   -3.0106   23.0998 C   0  0  0  0  0  0  0  0  0  0  0  0
   10.2148   -3.4364   25.4200 C   0  0  0  0  0  0  0  0  0  0  0  0
    9.7853   -1.1840   24.4927 C   0  0  0  0  0  0  0  0  0  0  0  0
    5.0276   -8.5227   17.5352 C   0  0  0  0  0  0  0  0  0  0  0  0
    9.8187   -2.0895   25.5800 C   0  0  0  0  0  0  0  0  0  0  0  0
    5.6473   -8.7216   15.3158 C   0  0  0  0  0  0  0  0  0  0  0  0
   10.7581   -3.1233   19.4720 N   0  0  0  0  0  0  0  0  0  0  0  0
    9.9571   -4.0573   16.8866 C   0  0  0  0  0  0  0  0  0  0  0  0
    7.6213   -6.5618   16.0087 C   0  0  0  0  0  0  0  0  0  0  0  0
   10.8583   -2.6527   20.7222 C   0  0  0  0  0  0  0  0  0  0  0  0
   10.6412   -3.5089   21.7936 C   0  0  0  0  0  0  0  0  0  0  0  0
   10.4972   -3.8968   24.1589 C   0  0  0  0  0  0  0  0  0  0  0  0
    5.9260   -8.2736   16.5517 C   0  0  0  0  0  0  0  0  0  0  0  0
    3.8816   -9.1166   17.2493 C   0  0  0  0  0  0  0  0  0  0  0  0
   10.1297   -1.6575   23.2324 C   0  0  0  0  0  0  0  0  0  0  0  0
    9.4684   -1.6929   26.7263 F   0  0  0  0  0  0  0  0  0  0  0  0
    7.7963   -7.7906   17.9837 C   0  0  0  0  0  0  0  0  0  0  0  0
   10.5884   -3.0725   16.7902 O   0  0  0  0  0  0  0  0  0  0  0  0
   10.4323   -5.3494   20.3516 C   0  0  0  0  0  0  0  0  0  0  0  0
    7.1156   -7.5454   16.8218 C   0  0  0  0  0  0  0  0  0  0  0  0
   10.3885   -4.4388   19.2773 C   0  0  0  0  0  0  0  0  0  0  0  0
    4.5160   -9.3822   15.0841 C   0  0  0  0  0  0  0  0  0  0  0  0
  1  3  4  0
  1 24  4  0
  2  6  4  0
  2 15  4  0
  3  5  4  0
  3  6  4  0
  4 21  4  0
  4 29  4  0
  5 15  4  0
  5 28  1  0
  6 16  4  0
  7 18  4  0
  7 26  4  0
  8 18  1  0
  8 19  4  0
  8 22  4  0
  9 12  4  0
  9 19  4  0
 10 12  4  0
 10 22  4  0
 11 20  4  0
 11 21  4  0
 12 23  1  0
 13 20  4  0
 13 29  4  0
 14 17  4  0
 14 28  4  0
 15 25  2  0
 16 27  4  0
 17 18  4  0
 20 27  1  0
 24 27  4  0
 26 28  4  0
M  END
$$$$

 Created by Python create_sdf_string function

 29 33  0  0  0  0  0  0  0  0999 V2000
    8.8270   -7.0288   18.4251 C   0  0  0  0  0  0  0  0  0  0  0  0
    9.1576   -4.6236   15.8860 O   0  0  0  0  0  0  0  0  0  0  0  0
    9.1509   -5.9108   17.7177 C   0  0  0  0  0  0  0  0  0  0  0  0
    3.6373   -9.5349   16.0582 N   0  0  0  0  0  0  0  0  0  0  0  0
    9.9275   -4.8001   18.0438 N   0  0  0  0  0  0  0  0  0  0  0  0
    8.5908   -5.7425   16.4412 C   0  0  0  0  0  0  0  0  0  0  0  0
   10.5993   -4.8981   21.6068 C   0  0  0  0  0  0  0  0  0  0  0  0
   10.4258   -3.0106   23.0998 C   0  0  0  0  0  0  0  0  0  0  0  0
   10.2148   -3.4364   25.4200 C   0  0  0  0  0  0  0  0  0  0  0  0
    9.7853   -1.1840   24.4927 C   0  0  0  0  0  0  0  0  0  0  0  0
    5.0276   -8.5227   17.5352 C   0  0  0  0  0  0  0  0  0  0  0  0
    9.8187   -2.0895   25.5800 C   0  0  0  0  0  0  0  0  0  0  0  0
    5.6473   -8.7216   15.3158 C   0  0  0  0  0  0  0  0  0  0  0  0
   10.7581   -3.1233   19.4720 N   0  0  0  0  0  0  0  0  0  0  0  0
    9.9571   -4.0573   16.8866 C   0  0  0  0  0  0  0  0  0  0  0  0
    7.6213   -6.5618   16.0087 C   0  0  0  0  0  0  0  0  0  0  0  0
   10.8583   -2.6527   20.7222 C   0  0  0  0  0  0  0  0  0  0  0  0
   10.6412   -3.5089   21.7936 C   0  0  0  0  0  0  0  0  0  0  0  0
   10.4972   -3.8968   24.1589 C   0  0  0  0  0  0  0  0  0  0  0  0
    5.9260   -8.2736   16.5517 C   0  0  0  0  0  0  0  0  0  0  0  0
    3.8816   -9.1166   17.2493 C   0  0  0  0  0  0  0  0  0  0  0  0
   10.1297   -1.6575   23.2324 C   0  0  0  0  0  0  0  0  0  0  0  0
    9.4684   -1.6929   26.7263 F   0  0  0  0  0  0  0  0  0  0  0  0
    7.7963   -7.7906   17.9837 C   0  0  0  0  0  0  0  0  0  0  0  0
   10.5884   -3.0725   16.7902 O   0  0  0  0  0  0  0  0  0  0  0  0
   10.4323   -5.3494   20.3516 C   0  0  0  0  0  0  0  0  0  0  0  0
    7.1156   -7.5454   16.8218 C   0  0  0  0  0  0  0  0  0  0  0  0
   10.3885   -4.4388   19.2773 C   0  0  0  0  0  0  0  0  0  0  0  0
    4.5160   -9.3822   15.0841 C   0  0  0  0  0  0  0  0  0  0  0  0
  1  3  4  0
  1 24  4  0
  2  6  4  0
  2 15  4  0
  3  5  4  0
  3  6  4  0
  4 21  4  0
  4 29  4  0
  5 15  4  0
  5 28  1  0
  6 16  4  0
  7 18  4  0
  7 26  4  0
  8 18  1  0
  8 19  4  0
  8 22  4  0
  9 12  4  0
  9 19  4  0
 10 12  4  0
 10 22  4  0
 11 20  4  0
 11 21  4  0
 12 23  1  0
 13 20  4  0
 13 29  4  0
 14 17  4  0
 14 28  4  0
 15 25  2  0
 16 27  4  0
 17 18  4  0
 20 27  1  0
 24 27  4  0
 26 28  4  0
M  END
$$$$

 Created by Python create_sdf_string function

 29 33  0  0  0  0  0  0  0  0999 V2000
    8.8270   -7.0288   18.4251 C   0  0  0  0  0  0  0  0  0  0  0  0
    9.1576   -4.6236   15.8860 O   0  0  0  0  0  0  0  0  0  0  0  0
    9.1509   -5.9108   17.7177 C   0  0  0  0  0  0  0  0  0  0  0  0
    3.6373   -9.5349   16.0582 N   0  0  0  0  0  0  0  0  0  0  0  0
    9.9275   -4.8001   18.0438 N   0  0  0  0  0  0  0  0  0  0  0  0
    8.5908   -5.7425   16.4412 C   0  0  0  0  0  0  0  0  0  0  0  0
   10.5993   -4.8981   21.6068 C   0  0  0  0  0  0  0  0  0  0  0  0
   10.4258   -3.0106   23.0998 C   0  0  0  0  0  0  0  0  0  0  0  0
   10.2148   -3.4364   25.4200 C   0  0  0  0  0  0  0  0  0  0  0  0
    9.7853   -1.1840   24.4927 C   0  0  0  0  0  0  0  0  0  0  0  0
    5.0276   -8.5227   17.5352 C   0  0  0  0  0  0  0  0  0  0  0  0
    9.8187   -2.0895   25.5800 C   0  0  0  0  0  0  0  0  0  0  0  0
    5.6473   -8.7216   15.3158 C   0  0  0  0  0  0  0  0  0  0  0  0
   10.7581   -3.1233   19.4720 N   0  0  0  0  0  0  0  0  0  0  0  0
    9.9571   -4.0573   16.8866 C   0  0  0  0  0  0  0  0  0  0  0  0
    7.6213   -6.5618   16.0087 C   0  0  0  0  0  0  0  0  0  0  0  0
   10.8583   -2.6527   20.7222 C   0  0  0  0  0  0  0  0  0  0  0  0
   10.6412   -3.5089   21.7936 C   0  0  0  0  0  0  0  0  0  0  0  0
   10.4972   -3.8968   24.1589 C   0  0  0  0  0  0  0  0  0  0  0  0
    5.9260   -8.2736   16.5517 C   0  0  0  0  0  0  0  0  0  0  0  0
    3.8816   -9.1166   17.2493 C   0  0  0  0  0  0  0  0  0  0  0  0
   10.1297   -1.6575   23.2324 C   0  0  0  0  0  0  0  0  0  0  0  0
    9.4684   -1.6929   26.7263 F   0  0  0  0  0  0  0  0  0  0  0  0
    7.7963   -7.7906   17.9837 C   0  0  0  0  0  0  0  0  0  0  0  0
   10.5884   -3.0725   16.7902 O   0  0  0  0  0  0  0  0  0  0  0  0
   10.4323   -5.3494   20.3516 C   0  0  0  0  0  0  0  0  0  0  0  0
    7.1156   -7.5454   16.8218 C   0  0  0  0  0  0  0  0  0  0  0  0
   10.3885   -4.4388   19.2773 C   0  0  0  0  0  0  0  0  0  0  0  0
    4.5160   -9.3822   15.0841 C   0  0  0  0  0  0  0  0  0  0  0  0
  1  3  4  0
  1 24  4  0
  2  6  4  0
  2 15  4  0
  3  5  4  0
  3  6  4  0
  4 21  4  0
  4 29  4  0
  5 15  4  0
  5 28  1  0
  6 16  4  0
  7 18  4  0
  7 26  4  0
  8 18  1  0
  8 19  4  0
  8 22  4  0
  9 12  4  0
  9 19  4  0
 10 12  4  0
 10 22  4  0
 11 20  4  0
 11 21  4  0
 12 23  1  0
 13 20  4  0
 13 29  4  0
 14 17  4  0
 14 28  4  0
 15 25  2  0
 16 27  4  0
 17 18  4  0
 20 27  1  0
 24 27  4  0
 26 28  4  0
M  END
$$$$

 Created by Python create_sdf_string function

 29 33  0  0  0  0  0  0  0  0999 V2000
    8.8270   -7.0288   18.4251 C   0  0  0  0  0  0  0  0  0  0  0  0
    9.1576   -4.6236   15.8860 O   0  0  0  0  0  0  0  0  0  0  0  0
    9.1509   -5.9108   17.7177 C   0  0  0  0  0  0  0  0  0  0  0  0
    3.6373   -9.5349   16.0582 N   0  0  0  0  0  0  0  0  0  0  0  0
    9.9275   -4.8001   18.0438 N   0  0  0  0  0  0  0  0  0  0  0  0
    8.5908   -5.7425   16.4412 C   0  0  0  0  0  0  0  0  0  0  0  0
   10.5993   -4.8981   21.6068 C   0  0  0  0  0  0  0  0  0  0  0  0
   10.4258   -3.0106   23.0998 C   0  0  0  0  0  0  0  0  0  0  0  0
   10.2148   -3.4364   25.4200 C   0  0  0  0  0  0  0  0  0  0  0  0
    9.7853   -1.1840   24.4927 C   0  0  0  0  0  0  0  0  0  0  0  0
    5.0276   -8.5227   17.5352 C   0  0  0  0  0  0  0  0  0  0  0  0
    9.8187   -2.0895   25.5800 C   0  0  0  0  0  0  0  0  0  0  0  0
    5.6473   -8.7216   15.3158 C   0  0  0  0  0  0  0  0  0  0  0  0
   10.7581   -3.1233   19.4720 N   0  0  0  0  0  0  0  0  0  0  0  0
    9.9571   -4.0573   16.8866 C   0  0  0  0  0  0  0  0  0  0  0  0
    7.6213   -6.5618   16.0087 C   0  0  0  0  0  0  0  0  0  0  0  0
   10.8583   -2.6527   20.7222 C   0  0  0  0  0  0  0  0  0  0  0  0
   10.6412   -3.5089   21.7936 C   0  0  0  0  0  0  0  0  0  0  0  0
   10.4972   -3.8968   24.1589 C   0  0  0  0  0  0  0  0  0  0  0  0
    5.9260   -8.2736   16.5517 C   0  0  0  0  0  0  0  0  0  0  0  0
    3.8816   -9.1166   17.2493 C   0  0  0  0  0  0  0  0  0  0  0  0
   10.1297   -1.6575   23.2324 C   0  0  0  0  0  0  0  0  0  0  0  0
    9.4684   -1.6929   26.7263 F   0  0  0  0  0  0  0  0  0  0  0  0
    7.7963   -7.7906   17.9837 C   0  0  0  0  0  0  0  0  0  0  0  0
   10.5884   -3.0725   16.7902 O   0  0  0  0  0  0  0  0  0  0  0  0
   10.4323   -5.3494   20.3516 C   0  0  0  0  0  0  0  0  0  0  0  0
    7.1156   -7.5454   16.8218 C   0  0  0  0  0  0  0  0  0  0  0  0
   10.3885   -4.4388   19.2773 C   0  0  0  0  0  0  0  0  0  0  0  0
    4.5160   -9.3822   15.0841 C   0  0  0  0  0  0  0  0  0  0  0  0
  1  3  4  0
  1 24  4  0
  2  6  4  0
  2 15  4  0
  3  5  4  0
  3  6  4  0
  4 21  4  0
  4 29  4  0
  5 15  4  0
  5 28  1  0
  6 16  4  0
  7 18  4  0
  7 26  4  0
  8 18  1  0
  8 19  4  0
  8 22  4  0
  9 12  4  0
  9 19  4  0
 10 12  4  0
 10 22  4  0
 11 20  4  0
 11 21  4  0
 12 23  1  0
 13 20  4  0
 13 29  4  0
 14 17  4  0
 14 28  4  0
 15 25  2  0
 16 27  4  0
 17 18  4  0
 20 27  1  0
 24 27  4  0
 26 28  4  0
M  END
$$$$

 Created by Python create_sdf_string function

 29 33  0  0  0  0  0  0  0  0999 V2000
    8.8270   -7.0288   18.4251 C   0  0  0  0  0  0  0  0  0  0  0  0
    9.1576   -4.6236   15.8860 O   0  0  0  0  0  0  0  0  0  0  0  0
    9.1509   -5.9108   17.7177 C   0  0  0  0  0  0  0  0  0  0  0  0
    3.6373   -9.5349   16.0582 N   0  0  0  0  0  0  0  0  0  0  0  0
    9.9275   -4.8001   18.0438 N   0  0  0  0  0  0  0  0  0  0  0  0
    8.5908   -5.7425   16.4412 C   0  0  0  0  0  0  0  0  0  0  0  0
   10.5993   -4.8981   21.6068 C   0  0  0  0  0  0  0  0  0  0  0  0
   10.4258   -3.0106   23.0998 C   0  0  0  0  0  0  0  0  0  0  0  0
   10.2148   -3.4364   25.4200 C   0  0  0  0  0  0  0  0  0  0  0  0
    9.7853   -1.1840   24.4927 C   0  0  0  0  0  0  0  0  0  0  0  0
    5.0276   -8.5227   17.5352 C   0  0  0  0  0  0  0  0  0  0  0  0
    9.8187   -2.0895   25.5800 C   0  0  0  0  0  0  0  0  0  0  0  0
    5.6473   -8.7216   15.3158 C   0  0  0  0  0  0  0  0  0  0  0  0
   10.7581   -3.1233   19.4720 N   0  0  0  0  0  0  0  0  0  0  0  0
    9.9571   -4.0573   16.8866 C   0  0  0  0  0  0  0  0  0  0  0  0
    7.6213   -6.5618   16.0087 C   0  0  0  0  0  0  0  0  0  0  0  0
   10.8583   -2.6527   20.7222 C   0  0  0  0  0  0  0  0  0  0  0  0
   10.6412   -3.5089   21.7936 C   0  0  0  0  0  0  0  0  0  0  0  0
   10.4972   -3.8968   24.1589 C   0  0  0  0  0  0  0  0  0  0  0  0
    5.9260   -8.2736   16.5517 C   0  0  0  0  0  0  0  0  0  0  0  0
    3.8816   -9.1166   17.2493 C   0  0  0  0  0  0  0  0  0  0  0  0
   10.1297   -1.6575   23.2324 C   0  0  0  0  0  0  0  0  0  0  0  0
    9.4684   -1.6929   26.7263 F   0  0  0  0  0  0  0  0  0  0  0  0
    7.7963   -7.7906   17.9837 C   0  0  0  0  0  0  0  0  0  0  0  0
   10.5884   -3.0725   16.7902 O   0  0  0  0  0  0  0  0  0  0  0  0
   10.4323   -5.3494   20.3516 C   0  0  0  0  0  0  0  0  0  0  0  0
    7.1156   -7.5454   16.8218 C   0  0  0  0  0  0  0  0  0  0  0  0
   10.3885   -4.4388   19.2773 C   0  0  0  0  0  0  0  0  0  0  0  0
    4.5160   -9.3822   15.0841 C   0  0  0  0  0  0  0  0  0  0  0  0
  1  3  4  0
  1 24  4  0
  2  6  4  0
  2 15  4  0
  3  5  4  0
  3  6  4  0
  4 21  4  0
  4 29  4  0
  5 15  4  0
  5 28  1  0
  6 16  4  0
  7 18  4  0
  7 26  4  0
  8 18  1  0
  8 19  4  0
  8 22  4  0
  9 12  4  0
  9 19  4  0
 10 12  4  0
 10 22  4  0
 11 20  4  0
 11 21  4  0
 12 23  1  0
 13 20  4  0
 13 29  4  0
 14 17  4  0
 14 28  4  0
 15 25  2  0
 16 27  4  0
 17 18  4  0
 20 27  1  0
 24 27  4  0
 26 28  4  0
M  END
$$$$

 Created by Python create_sdf_string function

 29 33  0  0  0  0  0  0  0  0999 V2000
    8.8270   -7.0288   18.4251 C   0  0  0  0  0  0  0  0  0  0  0  0
    9.1576   -4.6236   15.8860 O   0  0  0  0  0  0  0  0  0  0  0  0
    9.1509   -5.9108   17.7177 C   0  0  0  0  0  0  0  0  0  0  0  0
    3.6373   -9.5349   16.0582 N   0  0  0  0  0  0  0  0  0  0  0  0
    9.9275   -4.8001   18.0438 N   0  0  0  0  0  0  0  0  0  0  0  0
    8.5908   -5.7425   16.4412 C   0  0  0  0  0  0  0  0  0  0  0  0
   10.5993   -4.8981   21.6068 C   0  0  0  0  0  0  0  0  0  0  0  0
   10.4258   -3.0106   23.0998 C   0  0  0  0  0  0  0  0  0  0  0  0
   10.2148   -3.4364   25.4200 C   0  0  0  0  0  0  0  0  0  0  0  0
    9.7853   -1.1840   24.4927 C   0  0  0  0  0  0  0  0  0  0  0  0
    5.0276   -8.5227   17.5352 C   0  0  0  0  0  0  0  0  0  0  0  0
    9.8187   -2.0895   25.5800 C   0  0  0  0  0  0  0  0  0  0  0  0
    5.6473   -8.7216   15.3158 C   0  0  0  0  0  0  0  0  0  0  0  0
   10.7581   -3.1233   19.4720 N   0  0  0  0  0  0  0  0  0  0  0  0
    9.9571   -4.0573   16.8866 C   0  0  0  0  0  0  0  0  0  0  0  0
    7.6213   -6.5618   16.0087 C   0  0  0  0  0  0  0  0  0  0  0  0
   10.8583   -2.6527   20.7222 C   0  0  0  0  0  0  0  0  0  0  0  0
   10.6412   -3.5089   21.7936 C   0  0  0  0  0  0  0  0  0  0  0  0
   10.4972   -3.8968   24.1589 C   0  0  0  0  0  0  0  0  0  0  0  0
    5.9260   -8.2736   16.5517 C   0  0  0  0  0  0  0  0  0  0  0  0
    3.8816   -9.1166   17.2493 C   0  0  0  0  0  0  0  0  0  0  0  0
   10.1297   -1.6575   23.2324 C   0  0  0  0  0  0  0  0  0  0  0  0
    9.4684   -1.6929   26.7263 F   0  0  0  0  0  0  0  0  0  0  0  0
    7.7963   -7.7906   17.9837 C   0  0  0  0  0  0  0  0  0  0  0  0
   10.5884   -3.0725   16.7902 O   0  0  0  0  0  0  0  0  0  0  0  0
   10.4323   -5.3494   20.3516 C   0  0  0  0  0  0  0  0  0  0  0  0
    7.1156   -7.5454   16.8218 C   0  0  0  0  0  0  0  0  0  0  0  0
   10.3885   -4.4388   19.2773 C   0  0  0  0  0  0  0  0  0  0  0  0
    4.5160   -9.3822   15.0841 C   0  0  0  0  0  0  0  0  0  0  0  0
  1  3  4  0
  1 24  4  0
  2  6  4  0
  2 15  4  0
  3  5  4  0
  3  6  4  0
  4 21  4  0
  4 29  4  0
  5 15  4  0
  5 28  1  0
  6 16  4  0
  7 18  4  0
  7 26  4  0
  8 18  1  0
  8 19  4  0
  8 22  4  0
  9 12  4  0
  9 19  4  0
 10 12  4  0
 10 22  4  0
 11 20  4  0
 11 21  4  0
 12 23  1  0
 13 20  4  0
 13 29  4  0
 14 17  4  0
 14 28  4  0
 15 25  2  0
 16 27  4  0
 17 18  4  0
 20 27  1  0
 24 27  4  0
 26 28  4  0
M  END
$$$$

 Created by Python create_sdf_string function

 29 33  0  0  0  0  0  0  0  0999 V2000
    8.8270   -7.0288   18.4251 C   0  0  0  0  0  0  0  0  0  0  0  0
    9.1576   -4.6236   15.8860 O   0  0  0  0  0  0  0  0  0  0  0  0
    9.1509   -5.9108   17.7177 C   0  0  0  0  0  0  0  0  0  0  0  0
    3.6373   -9.5349   16.0582 N   0  0  0  0  0  0  0  0  0  0  0  0
    9.9275   -4.8001   18.0438 N   0  0  0  0  0  0  0  0  0  0  0  0
    8.5908   -5.7425   16.4412 C   0  0  0  0  0  0  0  0  0  0  0  0
   10.5993   -4.8981   21.6068 C   0  0  0  0  0  0  0  0  0  0  0  0
   10.4258   -3.0106   23.0998 C   0  0  0  0  0  0  0  0  0  0  0  0
   10.2148   -3.4364   25.4200 C   0  0  0  0  0  0  0  0  0  0  0  0
    9.7853   -1.1840   24.4927 C   0  0  0  0  0  0  0  0  0  0  0  0
    5.0276   -8.5227   17.5352 C   0  0  0  0  0  0  0  0  0  0  0  0
    9.8187   -2.0895   25.5800 C   0  0  0  0  0  0  0  0  0  0  0  0
    5.6473   -8.7216   15.3158 C   0  0  0  0  0  0  0  0  0  0  0  0
   10.7581   -3.1233   19.4720 N   0  0  0  0  0  0  0  0  0  0  0  0
    9.9571   -4.0573   16.8866 C   0  0  0  0  0  0  0  0  0  0  0  0
    7.6213   -6.5618   16.0087 C   0  0  0  0  0  0  0  0  0  0  0  0
   10.8583   -2.6527   20.7222 C   0  0  0  0  0  0  0  0  0  0  0  0
   10.6412   -3.5089   21.7936 C   0  0  0  0  0  0  0  0  0  0  0  0
   10.4972   -3.8968   24.1589 C   0  0  0  0  0  0  0  0  0  0  0  0
    5.9260   -8.2736   16.5517 C   0  0  0  0  0  0  0  0  0  0  0  0
    3.8816   -9.1166   17.2493 C   0  0  0  0  0  0  0  0  0  0  0  0
   10.1297   -1.6575   23.2324 C   0  0  0  0  0  0  0  0  0  0  0  0
    9.4684   -1.6929   26.7263 F   0  0  0  0  0  0  0  0  0  0  0  0
    7.7963   -7.7906   17.9837 C   0  0  0  0  0  0  0  0  0  0  0  0
   10.5884   -3.0725   16.7902 O   0  0  0  0  0  0  0  0  0  0  0  0
   10.4323   -5.3494   20.3516 C   0  0  0  0  0  0  0  0  0  0  0  0
    7.1156   -7.5454   16.8218 C   0  0  0  0  0  0  0  0  0  0  0  0
   10.3885   -4.4388   19.2773 C   0  0  0  0  0  0  0  0  0  0  0  0
    4.5160   -9.3822   15.0841 C   0  0  0  0  0  0  0  0  0  0  0  0
  1  3  4  0
  1 24  4  0
  2  6  4  0
  2 15  4  0
  3  5  4  0
  3  6  4  0
  4 21  4  0
  4 29  4  0
  5 15  4  0
  5 28  1  0
  6 16  4  0
  7 18  4  0
  7 26  4  0
  8 18  1  0
  8 19  4  0
  8 22  4  0
  9 12  4  0
  9 19  4  0
 10 12  4  0
 10 22  4  0
 11 20  4  0
 11 21  4  0
 12 23  1  0
 13 20  4  0
 13 29  4  0
 14 17  4  0
 14 28  4  0
 15 25  2  0
 16 27  4  0
 17 18  4  0
 20 27  1  0
 24 27  4  0
 26 28  4  0
M  END
$$$$

 Created by Python create_sdf_string function

 29 33  0  0  0  0  0  0  0  0999 V2000
    8.8270   -7.0288   18.4251 C   0  0  0  0  0  0  0  0  0  0  0  0
    9.1576   -4.6236   15.8860 O   0  0  0  0  0  0  0  0  0  0  0  0
    9.1509   -5.9108   17.7177 C   0  0  0  0  0  0  0  0  0  0  0  0
    3.6373   -9.5349   16.0582 N   0  0  0  0  0  0  0  0  0  0  0  0
    9.9275   -4.8001   18.0438 N   0  0  0  0  0  0  0  0  0  0  0  0
    8.5908   -5.7425   16.4412 C   0  0  0  0  0  0  0  0  0  0  0  0
   10.5993   -4.8981   21.6068 C   0  0  0  0  0  0  0  0  0  0  0  0
   10.4258   -3.0106   23.0998 C   0  0  0  0  0  0  0  0  0  0  0  0
   10.2148   -3.4364   25.4200 C   0  0  0  0  0  0  0  0  0  0  0  0
    9.7853   -1.1840   24.4927 C   0  0  0  0  0  0  0  0  0  0  0  0
    5.0276   -8.5227   17.5352 C   0  0  0  0  0  0  0  0  0  0  0  0
    9.8187   -2.0895   25.5800 C   0  0  0  0  0  0  0  0  0  0  0  0
    5.6473   -8.7216   15.3158 C   0  0  0  0  0  0  0  0  0  0  0  0
   10.7581   -3.1233   19.4720 N   0  0  0  0  0  0  0  0  0  0  0  0
    9.9571   -4.0573   16.8866 C   0  0  0  0  0  0  0  0  0  0  0  0
    7.6213   -6.5618   16.0087 C   0  0  0  0  0  0  0  0  0  0  0  0
   10.8583   -2.6527   20.7222 C   0  0  0  0  0  0  0  0  0  0  0  0
   10.6412   -3.5089   21.7936 C   0  0  0  0  0  0  0  0  0  0  0  0
   10.4972   -3.8968   24.1589 C   0  0  0  0  0  0  0  0  0  0  0  0
    5.9260   -8.2736   16.5517 C   0  0  0  0  0  0  0  0  0  0  0  0
    3.8816   -9.1166   17.2493 C   0  0  0  0  0  0  0  0  0  0  0  0
   10.1297   -1.6575   23.2324 C   0  0  0  0  0  0  0  0  0  0  0  0
    9.4684   -1.6929   26.7263 F   0  0  0  0  0  0  0  0  0  0  0  0
    7.7963   -7.7906   17.9837 C   0  0  0  0  0  0  0  0  0  0  0  0
   10.5884   -3.0725   16.7902 O   0  0  0  0  0  0  0  0  0  0  0  0
   10.4323   -5.3494   20.3516 C   0  0  0  0  0  0  0  0  0  0  0  0
    7.1156   -7.5454   16.8218 C   0  0  0  0  0  0  0  0  0  0  0  0
   10.3885   -4.4388   19.2773 C   0  0  0  0  0  0  0  0  0  0  0  0
    4.5160   -9.3822   15.0841 C   0  0  0  0  0  0  0  0  0  0  0  0
  1  3  4  0
  1 24  4  0
  2  6  4  0
  2 15  4  0
  3  5  4  0
  3  6  4  0
  4 21  4  0
  4 29  4  0
  5 15  4  0
  5 28  1  0
  6 16  4  0
  7 18  4  0
  7 26  4  0
  8 18  1  0
  8 19  4  0
  8 22  4  0
  9 12  4  0
  9 19  4  0
 10 12  4  0
 10 22  4  0
 11 20  4  0
 11 21  4  0
 12 23  1  0
 13 20  4  0
 13 29  4  0
 14 17  4  0
 14 28  4  0
 15 25  2  0
 16 27  4  0
 17 18  4  0
 20 27  1  0
 24 27  4  0
 26 28  4  0
M  END
$$$$

 Created by Python create_sdf_string function

 29 33  0  0  0  0  0  0  0  0999 V2000
    8.8270   -7.0288   18.4251 C   0  0  0  0  0  0  0  0  0  0  0  0
    9.1576   -4.6236   15.8860 O   0  0  0  0  0  0  0  0  0  0  0  0
    9.1509   -5.9108   17.7177 C   0  0  0  0  0  0  0  0  0  0  0  0
    3.6373   -9.5349   16.0582 N   0  0  0  0  0  0  0  0  0  0  0  0
    9.9275   -4.8001   18.0438 N   0  0  0  0  0  0  0  0  0  0  0  0
    8.5908   -5.7425   16.4412 C   0  0  0  0  0  0  0  0  0  0  0  0
   10.5993   -4.8981   21.6068 C   0  0  0  0  0  0  0  0  0  0  0  0
   10.4258   -3.0106   23.0998 C   0  0  0  0  0  0  0  0  0  0  0  0
   10.2148   -3.4364   25.4200 C   0  0  0  0  0  0  0  0  0  0  0  0
    9.7853   -1.1840   24.4927 C   0  0  0  0  0  0  0  0  0  0  0  0
    5.0276   -8.5227   17.5352 C   0  0  0  0  0  0  0  0  0  0  0  0
    9.8187   -2.0895   25.5800 C   0  0  0  0  0  0  0  0  0  0  0  0
    5.6473   -8.7216   15.3158 C   0  0  0  0  0  0  0  0  0  0  0  0
   10.7581   -3.1233   19.4720 N   0  0  0  0  0  0  0  0  0  0  0  0
    9.9571   -4.0573   16.8866 C   0  0  0  0  0  0  0  0  0  0  0  0
    7.6213   -6.5618   16.0087 C   0  0  0  0  0  0  0  0  0  0  0  0
   10.8583   -2.6527   20.7222 C   0  0  0  0  0  0  0  0  0  0  0  0
   10.6412   -3.5089   21.7936 C   0  0  0  0  0  0  0  0  0  0  0  0
   10.4972   -3.8968   24.1589 C   0  0  0  0  0  0  0  0  0  0  0  0
    5.9260   -8.2736   16.5517 C   0  0  0  0  0  0  0  0  0  0  0  0
    3.8816   -9.1166   17.2493 C   0  0  0  0  0  0  0  0  0  0  0  0
   10.1297   -1.6575   23.2324 C   0  0  0  0  0  0  0  0  0  0  0  0
    9.4684   -1.6929   26.7263 F   0  0  0  0  0  0  0  0  0  0  0  0
    7.7963   -7.7906   17.9837 C   0  0  0  0  0  0  0  0  0  0  0  0
   10.5884   -3.0725   16.7902 O   0  0  0  0  0  0  0  0  0  0  0  0
   10.4323   -5.3494   20.3516 C   0  0  0  0  0  0  0  0  0  0  0  0
    7.1156   -7.5454   16.8218 C   0  0  0  0  0  0  0  0  0  0  0  0
   10.3885   -4.4388   19.2773 C   0  0  0  0  0  0  0  0  0  0  0  0
    4.5160   -9.3822   15.0841 C   0  0  0  0  0  0  0  0  0  0  0  0
  1  3  4  0
  1 24  4  0
  2  6  4  0
  2 15  4  0
  3  5  4  0
  3  6  4  0
  4 21  4  0
  4 29  4  0
  5 15  4  0
  5 28  1  0
  6 16  4  0
  7 18  4  0
  7 26  4  0
  8 18  1  0
  8 19  4  0
  8 22  4  0
  9 12  4  0
  9 19  4  0
 10 12  4  0
 10 22  4  0
 11 20  4  0
 11 21  4  0
 12 23  1  0
 13 20  4  0
 13 29  4  0
 14 17  4  0
 14 28  4  0
 15 25  2  0
 16 27  4  0
 17 18  4  0
 20 27  1  0
 24 27  4  0
 26 28  4  0
M  END
$$$$

 Created by Python create_sdf_string function

 29 33  0  0  0  0  0  0  0  0999 V2000
    8.8270   -7.0288   18.4251 C   0  0  0  0  0  0  0  0  0  0  0  0
    9.1576   -4.6236   15.8860 O   0  0  0  0  0  0  0  0  0  0  0  0
    9.1509   -5.9108   17.7177 C   0  0  0  0  0  0  0  0  0  0  0  0
    3.6373   -9.5349   16.0582 N   0  0  0  0  0  0  0  0  0  0  0  0
    9.9275   -4.8001   18.0438 N   0  0  0  0  0  0  0  0  0  0  0  0
    8.5908   -5.7425   16.4412 C   0  0  0  0  0  0  0  0  0  0  0  0
   10.5993   -4.8981   21.6068 C   0  0  0  0  0  0  0  0  0  0  0  0
   10.4258   -3.0106   23.0998 C   0  0  0  0  0  0  0  0  0  0  0  0
   10.2148   -3.4364   25.4200 C   0  0  0  0  0  0  0  0  0  0  0  0
    9.7853   -1.1840   24.4927 C   0  0  0  0  0  0  0  0  0  0  0  0
    5.0276   -8.5227   17.5352 C   0  0  0  0  0  0  0  0  0  0  0  0
    9.8187   -2.0895   25.5800 C   0  0  0  0  0  0  0  0  0  0  0  0
    5.6473   -8.7216   15.3158 C   0  0  0  0  0  0  0  0  0  0  0  0
   10.7581   -3.1233   19.4720 N   0  0  0  0  0  0  0  0  0  0  0  0
    9.9571   -4.0573   16.8866 C   0  0  0  0  0  0  0  0  0  0  0  0
    7.6213   -6.5618   16.0087 C   0  0  0  0  0  0  0  0  0  0  0  0
   10.8583   -2.6527   20.7222 C   0  0  0  0  0  0  0  0  0  0  0  0
   10.6412   -3.5089   21.7936 C   0  0  0  0  0  0  0  0  0  0  0  0
   10.4972   -3.8968   24.1589 C   0  0  0  0  0  0  0  0  0  0  0  0
    5.9260   -8.2736   16.5517 C   0  0  0  0  0  0  0  0  0  0  0  0
    3.8816   -9.1166   17.2493 C   0  0  0  0  0  0  0  0  0  0  0  0
   10.1297   -1.6575   23.2324 C   0  0  0  0  0  0  0  0  0  0  0  0
    9.4684   -1.6929   26.7263 F   0  0  0  0  0  0  0  0  0  0  0  0
    7.7963   -7.7906   17.9837 C   0  0  0  0  0  0  0  0  0  0  0  0
   10.5884   -3.0725   16.7902 O   0  0  0  0  0  0  0  0  0  0  0  0
   10.4323   -5.3494   20.3516 C   0  0  0  0  0  0  0  0  0  0  0  0
    7.1156   -7.5454   16.8218 C   0  0  0  0  0  0  0  0  0  0  0  0
   10.3885   -4.4388   19.2773 C   0  0  0  0  0  0  0  0  0  0  0  0
    4.5160   -9.3822   15.0841 C   0  0  0  0  0  0  0  0  0  0  0  0
  1  3  4  0
  1 24  4  0
  2  6  4  0
  2 15  4  0
  3  5  4  0
  3  6  4  0
  4 21  4  0
  4 29  4  0
  5 15  4  0
  5 28  1  0
  6 16  4  0
  7 18  4  0
  7 26  4  0
  8 18  1  0
  8 19  4  0
  8 22  4  0
  9 12  4  0
  9 19  4  0
 10 12  4  0
 10 22  4  0
 11 20  4  0
 11 21  4  0
 12 23  1  0
 13 20  4  0
 13 29  4  0
 14 17  4  0
 14 28  4  0
 15 25  2  0
 16 27  4  0
 17 18  4  0
 20 27  1  0
 24 27  4  0
 26 28  4  0
M  END
$$$$

 Created by Python create_sdf_string function

 29 33  0  0  0  0  0  0  0  0999 V2000
    8.8270   -7.0288   18.4251 C   0  0  0  0  0  0  0  0  0  0  0  0
    9.1576   -4.6236   15.8860 O   0  0  0  0  0  0  0  0  0  0  0  0
    9.1509   -5.9108   17.7177 C   0  0  0  0  0  0  0  0  0  0  0  0
    3.6373   -9.5349   16.0582 N   0  0  0  0  0  0  0  0  0  0  0  0
    9.9275   -4.8001   18.0438 N   0  0  0  0  0  0  0  0  0  0  0  0
    8.5908   -5.7425   16.4412 C   0  0  0  0  0  0  0  0  0  0  0  0
   10.5993   -4.8981   21.6068 C   0  0  0  0  0  0  0  0  0  0  0  0
   10.4258   -3.0106   23.0998 C   0  0  0  0  0  0  0  0  0  0  0  0
   10.2148   -3.4364   25.4200 C   0  0  0  0  0  0  0  0  0  0  0  0
    9.7853   -1.1840   24.4927 C   0  0  0  0  0  0  0  0  0  0  0  0
    5.0276   -8.5227   17.5352 C   0  0  0  0  0  0  0  0  0  0  0  0
    9.8187   -2.0895   25.5800 C   0  0  0  0  0  0  0  0  0  0  0  0
    5.6473   -8.7216   15.3158 C   0  0  0  0  0  0  0  0  0  0  0  0
   10.7581   -3.1233   19.4720 N   0  0  0  0  0  0  0  0  0  0  0  0
    9.9571   -4.0573   16.8866 C   0  0  0  0  0  0  0  0  0  0  0  0
    7.6213   -6.5618   16.0087 C   0  0  0  0  0  0  0  0  0  0  0  0
   10.8583   -2.6527   20.7222 C   0  0  0  0  0  0  0  0  0  0  0  0
   10.6412   -3.5089   21.7936 C   0  0  0  0  0  0  0  0  0  0  0  0
   10.4972   -3.8968   24.1589 C   0  0  0  0  0  0  0  0  0  0  0  0
    5.9260   -8.2736   16.5517 C   0  0  0  0  0  0  0  0  0  0  0  0
    3.8816   -9.1166   17.2493 C   0  0  0  0  0  0  0  0  0  0  0  0
   10.1297   -1.6575   23.2324 C   0  0  0  0  0  0  0  0  0  0  0  0
    9.4684   -1.6929   26.7263 F   0  0  0  0  0  0  0  0  0  0  0  0
    7.7963   -7.7906   17.9837 C   0  0  0  0  0  0  0  0  0  0  0  0
   10.5884   -3.0725   16.7902 O   0  0  0  0  0  0  0  0  0  0  0  0
   10.4323   -5.3494   20.3516 C   0  0  0  0  0  0  0  0  0  0  0  0
    7.1156   -7.5454   16.8218 C   0  0  0  0  0  0  0  0  0  0  0  0
   10.3885   -4.4388   19.2773 C   0  0  0  0  0  0  0  0  0  0  0  0
    4.5160   -9.3822   15.0841 C   0  0  0  0  0  0  0  0  0  0  0  0
  1  3  4  0
  1 24  4  0
  2  6  4  0
  2 15  4  0
  3  5  4  0
  3  6  4  0
  4 21  4  0
  4 29  4  0
  5 15  4  0
  5 28  1  0
  6 16  4  0
  7 18  4  0
  7 26  4  0
  8 18  1  0
  8 19  4  0
  8 22  4  0
  9 12  4  0
  9 19  4  0
 10 12  4  0
 10 22  4  0
 11 20  4  0
 11 21  4  0
 12 23  1  0
 13 20  4  0
 13 29  4  0
 14 17  4  0
 14 28  4  0
 15 25  2  0
 16 27  4  0
 17 18  4  0
 20 27  1  0
 24 27  4  0
 26 28  4  0
M  END
$$$$

 Created by Python create_sdf_string function

 29 33  0  0  0  0  0  0  0  0999 V2000
    8.8270   -7.0288   18.4251 C   0  0  0  0  0  0  0  0  0  0  0  0
    9.1576   -4.6236   15.8860 O   0  0  0  0  0  0  0  0  0  0  0  0
    9.1509   -5.9108   17.7177 C   0  0  0  0  0  0  0  0  0  0  0  0
    3.6373   -9.5349   16.0582 N   0  0  0  0  0  0  0  0  0  0  0  0
    9.9275   -4.8001   18.0438 N   0  0  0  0  0  0  0  0  0  0  0  0
    8.5908   -5.7425   16.4412 C   0  0  0  0  0  0  0  0  0  0  0  0
   10.5993   -4.8981   21.6068 C   0  0  0  0  0  0  0  0  0  0  0  0
   10.4258   -3.0106   23.0998 C   0  0  0  0  0  0  0  0  0  0  0  0
   10.2148   -3.4364   25.4200 C   0  0  0  0  0  0  0  0  0  0  0  0
    9.7853   -1.1840   24.4927 C   0  0  0  0  0  0  0  0  0  0  0  0
    5.0276   -8.5227   17.5352 C   0  0  0  0  0  0  0  0  0  0  0  0
    9.8187   -2.0895   25.5800 C   0  0  0  0  0  0  0  0  0  0  0  0
    5.6473   -8.7216   15.3158 C   0  0  0  0  0  0  0  0  0  0  0  0
   10.7581   -3.1233   19.4720 N   0  0  0  0  0  0  0  0  0  0  0  0
    9.9571   -4.0573   16.8866 C   0  0  0  0  0  0  0  0  0  0  0  0
    7.6213   -6.5618   16.0087 C   0  0  0  0  0  0  0  0  0  0  0  0
   10.8583   -2.6527   20.7222 C   0  0  0  0  0  0  0  0  0  0  0  0
   10.6412   -3.5089   21.7936 C   0  0  0  0  0  0  0  0  0  0  0  0
   10.4972   -3.8968   24.1589 C   0  0  0  0  0  0  0  0  0  0  0  0
    5.9260   -8.2736   16.5517 C   0  0  0  0  0  0  0  0  0  0  0  0
    3.8816   -9.1166   17.2493 C   0  0  0  0  0  0  0  0  0  0  0  0
   10.1297   -1.6575   23.2324 C   0  0  0  0  0  0  0  0  0  0  0  0
    9.4684   -1.6929   26.7263 F   0  0  0  0  0  0  0  0  0  0  0  0
    7.7963   -7.7906   17.9837 C   0  0  0  0  0  0  0  0  0  0  0  0
   10.5884   -3.0725   16.7902 O   0  0  0  0  0  0  0  0  0  0  0  0
   10.4323   -5.3494   20.3516 C   0  0  0  0  0  0  0  0  0  0  0  0
    7.1156   -7.5454   16.8218 C   0  0  0  0  0  0  0  0  0  0  0  0
   10.3885   -4.4388   19.2773 C   0  0  0  0  0  0  0  0  0  0  0  0
    4.5160   -9.3822   15.0841 C   0  0  0  0  0  0  0  0  0  0  0  0
  1  3  4  0
  1 24  4  0
  2  6  4  0
  2 15  4  0
  3  5  4  0
  3  6  4  0
  4 21  4  0
  4 29  4  0
  5 15  4  0
  5 28  1  0
  6 16  4  0
  7 18  4  0
  7 26  4  0
  8 18  1  0
  8 19  4  0
  8 22  4  0
  9 12  4  0
  9 19  4  0
 10 12  4  0
 10 22  4  0
 11 20  4  0
 11 21  4  0
 12 23  1  0
 13 20  4  0
 13 29  4  0
 14 17  4  0
 14 28  4  0
 15 25  2  0
 16 27  4  0
 17 18  4  0
 20 27  1  0
 24 27  4  0
 26 28  4  0
M  END
$$$$

 Created by Python create_sdf_string function

 29 33  0  0  0  0  0  0  0  0999 V2000
    8.8270   -7.0288   18.4251 C   0  0  0  0  0  0  0  0  0  0  0  0
    9.1576   -4.6236   15.8860 O   0  0  0  0  0  0  0  0  0  0  0  0
    9.1509   -5.9108   17.7177 C   0  0  0  0  0  0  0  0  0  0  0  0
    3.6373   -9.5349   16.0582 N   0  0  0  0  0  0  0  0  0  0  0  0
    9.9275   -4.8001   18.0438 N   0  0  0  0  0  0  0  0  0  0  0  0
    8.5908   -5.7425   16.4412 C   0  0  0  0  0  0  0  0  0  0  0  0
   10.5993   -4.8981   21.6068 C   0  0  0  0  0  0  0  0  0  0  0  0
   10.4258   -3.0106   23.0998 C   0  0  0  0  0  0  0  0  0  0  0  0
   10.2148   -3.4364   25.4200 C   0  0  0  0  0  0  0  0  0  0  0  0
    9.7853   -1.1840   24.4927 C   0  0  0  0  0  0  0  0  0  0  0  0
    5.0276   -8.5227   17.5352 C   0  0  0  0  0  0  0  0  0  0  0  0
    9.8187   -2.0895   25.5800 C   0  0  0  0  0  0  0  0  0  0  0  0
    5.6473   -8.7216   15.3158 C   0  0  0  0  0  0  0  0  0  0  0  0
   10.7581   -3.1233   19.4720 N   0  0  0  0  0  0  0  0  0  0  0  0
    9.9571   -4.0573   16.8866 C   0  0  0  0  0  0  0  0  0  0  0  0
    7.6213   -6.5618   16.0087 C   0  0  0  0  0  0  0  0  0  0  0  0
   10.8583   -2.6527   20.7222 C   0  0  0  0  0  0  0  0  0  0  0  0
   10.6412   -3.5089   21.7936 C   0  0  0  0  0  0  0  0  0  0  0  0
   10.4972   -3.8968   24.1589 C   0  0  0  0  0  0  0  0  0  0  0  0
    5.9260   -8.2736   16.5517 C   0  0  0  0  0  0  0  0  0  0  0  0
    3.8816   -9.1166   17.2493 C   0  0  0  0  0  0  0  0  0  0  0  0
   10.1297   -1.6575   23.2324 C   0  0  0  0  0  0  0  0  0  0  0  0
    9.4684   -1.6929   26.7263 F   0  0  0  0  0  0  0  0  0  0  0  0
    7.7963   -7.7906   17.9837 C   0  0  0  0  0  0  0  0  0  0  0  0
   10.5884   -3.0725   16.7902 O   0  0  0  0  0  0  0  0  0  0  0  0
   10.4323   -5.3494   20.3516 C   0  0  0  0  0  0  0  0  0  0  0  0
    7.1156   -7.5454   16.8218 C   0  0  0  0  0  0  0  0  0  0  0  0
   10.3885   -4.4388   19.2773 C   0  0  0  0  0  0  0  0  0  0  0  0
    4.5160   -9.3822   15.0841 C   0  0  0  0  0  0  0  0  0  0  0  0
  1  3  4  0
  1 24  4  0
  2  6  4  0
  2 15  4  0
  3  5  4  0
  3  6  4  0
  4 21  4  0
  4 29  4  0
  5 15  4  0
  5 28  1  0
  6 16  4  0
  7 18  4  0
  7 26  4  0
  8 18  1  0
  8 19  4  0
  8 22  4  0
  9 12  4  0
  9 19  4  0
 10 12  4  0
 10 22  4  0
 11 20  4  0
 11 21  4  0
 12 23  1  0
 13 20  4  0
 13 29  4  0
 14 17  4  0
 14 28  4  0
 15 25  2  0
 16 27  4  0
 17 18  4  0
 20 27  1  0
 24 27  4  0
 26 28  4  0
M  END
$$$$

 Created by Python create_sdf_string function

 29 33  0  0  0  0  0  0  0  0999 V2000
    8.8270   -7.0288   18.4251 C   0  0  0  0  0  0  0  0  0  0  0  0
    9.1576   -4.6236   15.8860 O   0  0  0  0  0  0  0  0  0  0  0  0
    9.1509   -5.9108   17.7177 C   0  0  0  0  0  0  0  0  0  0  0  0
    3.6373   -9.5349   16.0582 N   0  0  0  0  0  0  0  0  0  0  0  0
    9.9275   -4.8001   18.0438 N   0  0  0  0  0  0  0  0  0  0  0  0
    8.5908   -5.7425   16.4412 C   0  0  0  0  0  0  0  0  0  0  0  0
   10.5993   -4.8981   21.6068 C   0  0  0  0  0  0  0  0  0  0  0  0
   10.4258   -3.0106   23.0998 C   0  0  0  0  0  0  0  0  0  0  0  0
   10.2148   -3.4364   25.4200 C   0  0  0  0  0  0  0  0  0  0  0  0
    9.7853   -1.1840   24.4927 C   0  0  0  0  0  0  0  0  0  0  0  0
    5.0276   -8.5227   17.5352 C   0  0  0  0  0  0  0  0  0  0  0  0
    9.8187   -2.0895   25.5800 C   0  0  0  0  0  0  0  0  0  0  0  0
    5.6473   -8.7216   15.3158 C   0  0  0  0  0  0  0  0  0  0  0  0
   10.7581   -3.1233   19.4720 N   0  0  0  0  0  0  0  0  0  0  0  0
    9.9571   -4.0573   16.8866 C   0  0  0  0  0  0  0  0  0  0  0  0
    7.6213   -6.5618   16.0087 C   0  0  0  0  0  0  0  0  0  0  0  0
   10.8583   -2.6527   20.7222 C   0  0  0  0  0  0  0  0  0  0  0  0
   10.6412   -3.5089   21.7936 C   0  0  0  0  0  0  0  0  0  0  0  0
   10.4972   -3.8968   24.1589 C   0  0  0  0  0  0  0  0  0  0  0  0
    5.9260   -8.2736   16.5517 C   0  0  0  0  0  0  0  0  0  0  0  0
    3.8816   -9.1166   17.2493 C   0  0  0  0  0  0  0  0  0  0  0  0
   10.1297   -1.6575   23.2324 C   0  0  0  0  0  0  0  0  0  0  0  0
    9.4684   -1.6929   26.7263 F   0  0  0  0  0  0  0  0  0  0  0  0
    7.7963   -7.7906   17.9837 C   0  0  0  0  0  0  0  0  0  0  0  0
   10.5884   -3.0725   16.7902 O   0  0  0  0  0  0  0  0  0  0  0  0
   10.4323   -5.3494   20.3516 C   0  0  0  0  0  0  0  0  0  0  0  0
    7.1156   -7.5454   16.8218 C   0  0  0  0  0  0  0  0  0  0  0  0
   10.3885   -4.4388   19.2773 C   0  0  0  0  0  0  0  0  0  0  0  0
    4.5160   -9.3822   15.0841 C   0  0  0  0  0  0  0  0  0  0  0  0
  1  3  4  0
  1 24  4  0
  2  6  4  0
  2 15  4  0
  3  5  4  0
  3  6  4  0
  4 21  4  0
  4 29  4  0
  5 15  4  0
  5 28  1  0
  6 16  4  0
  7 18  4  0
  7 26  4  0
  8 18  1  0
  8 19  4  0
  8 22  4  0
  9 12  4  0
  9 19  4  0
 10 12  4  0
 10 22  4  0
 11 20  4  0
 11 21  4  0
 12 23  1  0
 13 20  4  0
 13 29  4  0
 14 17  4  0
 14 28  4  0
 15 25  2  0
 16 27  4  0
 17 18  4  0
 20 27  1  0
 24 27  4  0
 26 28  4  0
M  END
$$$$

 Created by Python create_sdf_string function

 29 33  0  0  0  0  0  0  0  0999 V2000
    8.8270   -7.0288   18.4251 C   0  0  0  0  0  0  0  0  0  0  0  0
    9.1576   -4.6236   15.8860 O   0  0  0  0  0  0  0  0  0  0  0  0
    9.1509   -5.9108   17.7177 C   0  0  0  0  0  0  0  0  0  0  0  0
    3.6373   -9.5349   16.0582 N   0  0  0  0  0  0  0  0  0  0  0  0
    9.9275   -4.8001   18.0438 N   0  0  0  0  0  0  0  0  0  0  0  0
    8.5908   -5.7425   16.4412 C   0  0  0  0  0  0  0  0  0  0  0  0
   10.5993   -4.8981   21.6068 C   0  0  0  0  0  0  0  0  0  0  0  0
   10.4258   -3.0106   23.0998 C   0  0  0  0  0  0  0  0  0  0  0  0
   10.2148   -3.4364   25.4200 C   0  0  0  0  0  0  0  0  0  0  0  0
    9.7853   -1.1840   24.4927 C   0  0  0  0  0  0  0  0  0  0  0  0
    5.0276   -8.5227   17.5352 C   0  0  0  0  0  0  0  0  0  0  0  0
    9.8187   -2.0895   25.5800 C   0  0  0  0  0  0  0  0  0  0  0  0
    5.6473   -8.7216   15.3158 C   0  0  0  0  0  0  0  0  0  0  0  0
   10.7581   -3.1233   19.4720 N   0  0  0  0  0  0  0  0  0  0  0  0
    9.9571   -4.0573   16.8866 C   0  0  0  0  0  0  0  0  0  0  0  0
    7.6213   -6.5618   16.0087 C   0  0  0  0  0  0  0  0  0  0  0  0
   10.8583   -2.6527   20.7222 C   0  0  0  0  0  0  0  0  0  0  0  0
   10.6412   -3.5089   21.7936 C   0  0  0  0  0  0  0  0  0  0  0  0
   10.4972   -3.8968   24.1589 C   0  0  0  0  0  0  0  0  0  0  0  0
    5.9260   -8.2736   16.5517 C   0  0  0  0  0  0  0  0  0  0  0  0
    3.8816   -9.1166   17.2493 C   0  0  0  0  0  0  0  0  0  0  0  0
   10.1297   -1.6575   23.2324 C   0  0  0  0  0  0  0  0  0  0  0  0
    9.4684   -1.6929   26.7263 F   0  0  0  0  0  0  0  0  0  0  0  0
    7.7963   -7.7906   17.9837 C   0  0  0  0  0  0  0  0  0  0  0  0
   10.5884   -3.0725   16.7902 O   0  0  0  0  0  0  0  0  0  0  0  0
   10.4323   -5.3494   20.3516 C   0  0  0  0  0  0  0  0  0  0  0  0
    7.1156   -7.5454   16.8218 C   0  0  0  0  0  0  0  0  0  0  0  0
   10.3885   -4.4388   19.2773 C   0  0  0  0  0  0  0  0  0  0  0  0
    4.5160   -9.3822   15.0841 C   0  0  0  0  0  0  0  0  0  0  0  0
  1  3  4  0
  1 24  4  0
  2  6  4  0
  2 15  4  0
  3  5  4  0
  3  6  4  0
  4 21  4  0
  4 29  4  0
  5 15  4  0
  5 28  1  0
  6 16  4  0
  7 18  4  0
  7 26  4  0
  8 18  1  0
  8 19  4  0
  8 22  4  0
  9 12  4  0
  9 19  4  0
 10 12  4  0
 10 22  4  0
 11 20  4  0
 11 21  4  0
 12 23  1  0
 13 20  4  0
 13 29  4  0
 14 17  4  0
 14 28  4  0
 15 25  2  0
 16 27  4  0
 17 18  4  0
 20 27  1  0
 24 27  4  0
 26 28  4  0
M  END
$$$$

 Created by Python create_sdf_string function

 29 33  0  0  0  0  0  0  0  0999 V2000
    8.8270   -7.0288   18.4251 C   0  0  0  0  0  0  0  0  0  0  0  0
    9.1576   -4.6236   15.8860 O   0  0  0  0  0  0  0  0  0  0  0  0
    9.1509   -5.9108   17.7177 C   0  0  0  0  0  0  0  0  0  0  0  0
    3.6373   -9.5349   16.0582 N   0  0  0  0  0  0  0  0  0  0  0  0
    9.9275   -4.8001   18.0438 N   0  0  0  0  0  0  0  0  0  0  0  0
    8.5908   -5.7425   16.4412 C   0  0  0  0  0  0  0  0  0  0  0  0
   10.5993   -4.8981   21.6068 C   0  0  0  0  0  0  0  0  0  0  0  0
   10.4258   -3.0106   23.0998 C   0  0  0  0  0  0  0  0  0  0  0  0
   10.2148   -3.4364   25.4200 C   0  0  0  0  0  0  0  0  0  0  0  0
    9.7853   -1.1840   24.4927 C   0  0  0  0  0  0  0  0  0  0  0  0
    5.0276   -8.5227   17.5352 C   0  0  0  0  0  0  0  0  0  0  0  0
    9.8187   -2.0895   25.5800 C   0  0  0  0  0  0  0  0  0  0  0  0
    5.6473   -8.7216   15.3158 C   0  0  0  0  0  0  0  0  0  0  0  0
   10.7581   -3.1233   19.4720 N   0  0  0  0  0  0  0  0  0  0  0  0
    9.9571   -4.0573   16.8866 C   0  0  0  0  0  0  0  0  0  0  0  0
    7.6213   -6.5618   16.0087 C   0  0  0  0  0  0  0  0  0  0  0  0
   10.8583   -2.6527   20.7222 C   0  0  0  0  0  0  0  0  0  0  0  0
   10.6412   -3.5089   21.7936 C   0  0  0  0  0  0  0  0  0  0  0  0
   10.4972   -3.8968   24.1589 C   0  0  0  0  0  0  0  0  0  0  0  0
    5.9260   -8.2736   16.5517 C   0  0  0  0  0  0  0  0  0  0  0  0
    3.8816   -9.1166   17.2493 C   0  0  0  0  0  0  0  0  0  0  0  0
   10.1297   -1.6575   23.2324 C   0  0  0  0  0  0  0  0  0  0  0  0
    9.4684   -1.6929   26.7263 F   0  0  0  0  0  0  0  0  0  0  0  0
    7.7963   -7.7906   17.9837 C   0  0  0  0  0  0  0  0  0  0  0  0
   10.5884   -3.0725   16.7902 O   0  0  0  0  0  0  0  0  0  0  0  0
   10.4323   -5.3494   20.3516 C   0  0  0  0  0  0  0  0  0  0  0  0
    7.1156   -7.5454   16.8218 C   0  0  0  0  0  0  0  0  0  0  0  0
   10.3885   -4.4388   19.2773 C   0  0  0  0  0  0  0  0  0  0  0  0
    4.5160   -9.3822   15.0841 C   0  0  0  0  0  0  0  0  0  0  0  0
  1  3  4  0
  1 24  4  0
  2  6  4  0
  2 15  4  0
  3  5  4  0
  3  6  4  0
  4 21  4  0
  4 29  4  0
  5 15  4  0
  5 28  1  0
  6 16  4  0
  7 18  4  0
  7 26  4  0
  8 18  1  0
  8 19  4  0
  8 22  4  0
  9 12  4  0
  9 19  4  0
 10 12  4  0
 10 22  4  0
 11 20  4  0
 11 21  4  0
 12 23  1  0
 13 20  4  0
 13 29  4  0
 14 17  4  0
 14 28  4  0
 15 25  2  0
 16 27  4  0
 17 18  4  0
 20 27  1  0
 24 27  4  0
 26 28  4  0
M  END
$$$$

 Created by Python create_sdf_string function

 29 33  0  0  0  0  0  0  0  0999 V2000
    8.8270   -7.0288   18.4251 C   0  0  0  0  0  0  0  0  0  0  0  0
    9.1576   -4.6236   15.8860 O   0  0  0  0  0  0  0  0  0  0  0  0
    9.1509   -5.9108   17.7177 C   0  0  0  0  0  0  0  0  0  0  0  0
    3.6373   -9.5349   16.0582 N   0  0  0  0  0  0  0  0  0  0  0  0
    9.9275   -4.8001   18.0438 N   0  0  0  0  0  0  0  0  0  0  0  0
    8.5908   -5.7425   16.4412 C   0  0  0  0  0  0  0  0  0  0  0  0
   10.5993   -4.8981   21.6068 C   0  0  0  0  0  0  0  0  0  0  0  0
   10.4258   -3.0106   23.0998 C   0  0  0  0  0  0  0  0  0  0  0  0
   10.2148   -3.4364   25.4200 C   0  0  0  0  0  0  0  0  0  0  0  0
    9.7853   -1.1840   24.4927 C   0  0  0  0  0  0  0  0  0  0  0  0
    5.0276   -8.5227   17.5352 C   0  0  0  0  0  0  0  0  0  0  0  0
    9.8187   -2.0895   25.5800 C   0  0  0  0  0  0  0  0  0  0  0  0
    5.6473   -8.7216   15.3158 C   0  0  0  0  0  0  0  0  0  0  0  0
   10.7581   -3.1233   19.4720 N   0  0  0  0  0  0  0  0  0  0  0  0
    9.9571   -4.0573   16.8866 C   0  0  0  0  0  0  0  0  0  0  0  0
    7.6213   -6.5618   16.0087 C   0  0  0  0  0  0  0  0  0  0  0  0
   10.8583   -2.6527   20.7222 C   0  0  0  0  0  0  0  0  0  0  0  0
   10.6412   -3.5089   21.7936 C   0  0  0  0  0  0  0  0  0  0  0  0
   10.4972   -3.8968   24.1589 C   0  0  0  0  0  0  0  0  0  0  0  0
    5.9260   -8.2736   16.5517 C   0  0  0  0  0  0  0  0  0  0  0  0
    3.8816   -9.1166   17.2493 C   0  0  0  0  0  0  0  0  0  0  0  0
   10.1297   -1.6575   23.2324 C   0  0  0  0  0  0  0  0  0  0  0  0
    9.4684   -1.6929   26.7263 F   0  0  0  0  0  0  0  0  0  0  0  0
    7.7963   -7.7906   17.9837 C   0  0  0  0  0  0  0  0  0  0  0  0
   10.5884   -3.0725   16.7902 O   0  0  0  0  0  0  0  0  0  0  0  0
   10.4323   -5.3494   20.3516 C   0  0  0  0  0  0  0  0  0  0  0  0
    7.1156   -7.5454   16.8218 C   0  0  0  0  0  0  0  0  0  0  0  0
   10.3885   -4.4388   19.2773 C   0  0  0  0  0  0  0  0  0  0  0  0
    4.5160   -9.3822   15.0841 C   0  0  0  0  0  0  0  0  0  0  0  0
  1  3  4  0
  1 24  4  0
  2  6  4  0
  2 15  4  0
  3  5  4  0
  3  6  4  0
  4 21  4  0
  4 29  4  0
  5 15  4  0
  5 28  1  0
  6 16  4  0
  7 18  4  0
  7 26  4  0
  8 18  1  0
  8 19  4  0
  8 22  4  0
  9 12  4  0
  9 19  4  0
 10 12  4  0
 10 22  4  0
 11 20  4  0
 11 21  4  0
 12 23  1  0
 13 20  4  0
 13 29  4  0
 14 17  4  0
 14 28  4  0
 15 25  2  0
 16 27  4  0
 17 18  4  0
 20 27  1  0
 24 27  4  0
 26 28  4  0
M  END
$$$$

 Created by Python create_sdf_string function

 29 33  0  0  0  0  0  0  0  0999 V2000
    8.8270   -7.0288   18.4251 C   0  0  0  0  0  0  0  0  0  0  0  0
    9.1576   -4.6236   15.8860 O   0  0  0  0  0  0  0  0  0  0  0  0
    9.1509   -5.9108   17.7177 C   0  0  0  0  0  0  0  0  0  0  0  0
    3.6373   -9.5349   16.0582 N   0  0  0  0  0  0  0  0  0  0  0  0
    9.9275   -4.8001   18.0438 N   0  0  0  0  0  0  0  0  0  0  0  0
    8.5908   -5.7425   16.4412 C   0  0  0  0  0  0  0  0  0  0  0  0
   10.5993   -4.8981   21.6068 C   0  0  0  0  0  0  0  0  0  0  0  0
   10.4258   -3.0106   23.0998 C   0  0  0  0  0  0  0  0  0  0  0  0
   10.2148   -3.4364   25.4200 C   0  0  0  0  0  0  0  0  0  0  0  0
    9.7853   -1.1840   24.4927 C   0  0  0  0  0  0  0  0  0  0  0  0
    5.0276   -8.5227   17.5352 C   0  0  0  0  0  0  0  0  0  0  0  0
    9.8187   -2.0895   25.5800 C   0  0  0  0  0  0  0  0  0  0  0  0
    5.6473   -8.7216   15.3158 C   0  0  0  0  0  0  0  0  0  0  0  0
   10.7581   -3.1233   19.4720 N   0  0  0  0  0  0  0  0  0  0  0  0
    9.9571   -4.0573   16.8866 C   0  0  0  0  0  0  0  0  0  0  0  0
    7.6213   -6.5618   16.0087 C   0  0  0  0  0  0  0  0  0  0  0  0
   10.8583   -2.6527   20.7222 C   0  0  0  0  0  0  0  0  0  0  0  0
   10.6412   -3.5089   21.7936 C   0  0  0  0  0  0  0  0  0  0  0  0
   10.4972   -3.8968   24.1589 C   0  0  0  0  0  0  0  0  0  0  0  0
    5.9260   -8.2736   16.5517 C   0  0  0  0  0  0  0  0  0  0  0  0
    3.8816   -9.1166   17.2493 C   0  0  0  0  0  0  0  0  0  0  0  0
   10.1297   -1.6575   23.2324 C   0  0  0  0  0  0  0  0  0  0  0  0
    9.4684   -1.6929   26.7263 F   0  0  0  0  0  0  0  0  0  0  0  0
    7.7963   -7.7906   17.9837 C   0  0  0  0  0  0  0  0  0  0  0  0
   10.5884   -3.0725   16.7902 O   0  0  0  0  0  0  0  0  0  0  0  0
   10.4323   -5.3494   20.3516 C   0  0  0  0  0  0  0  0  0  0  0  0
    7.1156   -7.5454   16.8218 C   0  0  0  0  0  0  0  0  0  0  0  0
   10.3885   -4.4388   19.2773 C   0  0  0  0  0  0  0  0  0  0  0  0
    4.5160   -9.3822   15.0841 C   0  0  0  0  0  0  0  0  0  0  0  0
  1  3  4  0
  1 24  4  0
  2  6  4  0
  2 15  4  0
  3  5  4  0
  3  6  4  0
  4 21  4  0
  4 29  4  0
  5 15  4  0
  5 28  1  0
  6 16  4  0
  7 18  4  0
  7 26  4  0
  8 18  1  0
  8 19  4  0
  8 22  4  0
  9 12  4  0
  9 19  4  0
 10 12  4  0
 10 22  4  0
 11 20  4  0
 11 21  4  0
 12 23  1  0
 13 20  4  0
 13 29  4  0
 14 17  4  0
 14 28  4  0
 15 25  2  0
 16 27  4  0
 17 18  4  0
 20 27  1  0
 24 27  4  0
 26 28  4  0
M  END
$$$$

 Created by Python create_sdf_string function

 29 33  0  0  0  0  0  0  0  0999 V2000
    8.8270   -7.0288   18.4251 C   0  0  0  0  0  0  0  0  0  0  0  0
    9.1576   -4.6236   15.8860 O   0  0  0  0  0  0  0  0  0  0  0  0
    9.1509   -5.9108   17.7177 C   0  0  0  0  0  0  0  0  0  0  0  0
    3.6373   -9.5349   16.0582 N   0  0  0  0  0  0  0  0  0  0  0  0
    9.9275   -4.8001   18.0438 N   0  0  0  0  0  0  0  0  0  0  0  0
    8.5908   -5.7425   16.4412 C   0  0  0  0  0  0  0  0  0  0  0  0
   10.5993   -4.8981   21.6068 C   0  0  0  0  0  0  0  0  0  0  0  0
   10.4258   -3.0106   23.0998 C   0  0  0  0  0  0  0  0  0  0  0  0
   10.2148   -3.4364   25.4200 C   0  0  0  0  0  0  0  0  0  0  0  0
    9.7853   -1.1840   24.4927 C   0  0  0  0  0  0  0  0  0  0  0  0
    5.0276   -8.5227   17.5352 C   0  0  0  0  0  0  0  0  0  0  0  0
    9.8187   -2.0895   25.5800 C   0  0  0  0  0  0  0  0  0  0  0  0
    5.6473   -8.7216   15.3158 C   0  0  0  0  0  0  0  0  0  0  0  0
   10.7581   -3.1233   19.4720 N   0  0  0  0  0  0  0  0  0  0  0  0
    9.9571   -4.0573   16.8866 C   0  0  0  0  0  0  0  0  0  0  0  0
    7.6213   -6.5618   16.0087 C   0  0  0  0  0  0  0  0  0  0  0  0
   10.8583   -2.6527   20.7222 C   0  0  0  0  0  0  0  0  0  0  0  0
   10.6412   -3.5089   21.7936 C   0  0  0  0  0  0  0  0  0  0  0  0
   10.4972   -3.8968   24.1589 C   0  0  0  0  0  0  0  0  0  0  0  0
    5.9260   -8.2736   16.5517 C   0  0  0  0  0  0  0  0  0  0  0  0
    3.8816   -9.1166   17.2493 C   0  0  0  0  0  0  0  0  0  0  0  0
   10.1297   -1.6575   23.2324 C   0  0  0  0  0  0  0  0  0  0  0  0
    9.4684   -1.6929   26.7263 F   0  0  0  0  0  0  0  0  0  0  0  0
    7.7963   -7.7906   17.9837 C   0  0  0  0  0  0  0  0  0  0  0  0
   10.5884   -3.0725   16.7902 O   0  0  0  0  0  0  0  0  0  0  0  0
   10.4323   -5.3494   20.3516 C   0  0  0  0  0  0  0  0  0  0  0  0
    7.1156   -7.5454   16.8218 C   0  0  0  0  0  0  0  0  0  0  0  0
   10.3885   -4.4388   19.2773 C   0  0  0  0  0  0  0  0  0  0  0  0
    4.5160   -9.3822   15.0841 C   0  0  0  0  0  0  0  0  0  0  0  0
  1  3  4  0
  1 24  4  0
  2  6  4  0
  2 15  4  0
  3  5  4  0
  3  6  4  0
  4 21  4  0
  4 29  4  0
  5 15  4  0
  5 28  1  0
  6 16  4  0
  7 18  4  0
  7 26  4  0
  8 18  1  0
  8 19  4  0
  8 22  4  0
  9 12  4  0
  9 19  4  0
 10 12  4  0
 10 22  4  0
 11 20  4  0
 11 21  4  0
 12 23  1  0
 13 20  4  0
 13 29  4  0
 14 17  4  0
 14 28  4  0
 15 25  2  0
 16 27  4  0
 17 18  4  0
 20 27  1  0
 24 27  4  0
 26 28  4  0
M  END
$$$$

 Created by Python create_sdf_string function

 29 33  0  0  0  0  0  0  0  0999 V2000
    8.8270   -7.0288   18.4251 C   0  0  0  0  0  0  0  0  0  0  0  0
    9.1576   -4.6236   15.8860 O   0  0  0  0  0  0  0  0  0  0  0  0
    9.1509   -5.9108   17.7177 C   0  0  0  0  0  0  0  0  0  0  0  0
    3.6373   -9.5349   16.0582 N   0  0  0  0  0  0  0  0  0  0  0  0
    9.9275   -4.8001   18.0438 N   0  0  0  0  0  0  0  0  0  0  0  0
    8.5908   -5.7425   16.4412 C   0  0  0  0  0  0  0  0  0  0  0  0
   10.5993   -4.8981   21.6068 C   0  0  0  0  0  0  0  0  0  0  0  0
   10.4258   -3.0106   23.0998 C   0  0  0  0  0  0  0  0  0  0  0  0
   10.2148   -3.4364   25.4200 C   0  0  0  0  0  0  0  0  0  0  0  0
    9.7853   -1.1840   24.4927 C   0  0  0  0  0  0  0  0  0  0  0  0
    5.0276   -8.5227   17.5352 C   0  0  0  0  0  0  0  0  0  0  0  0
    9.8187   -2.0895   25.5800 C   0  0  0  0  0  0  0  0  0  0  0  0
    5.6473   -8.7216   15.3158 C   0  0  0  0  0  0  0  0  0  0  0  0
   10.7581   -3.1233   19.4720 N   0  0  0  0  0  0  0  0  0  0  0  0
    9.9571   -4.0573   16.8866 C   0  0  0  0  0  0  0  0  0  0  0  0
    7.6213   -6.5618   16.0087 C   0  0  0  0  0  0  0  0  0  0  0  0
   10.8583   -2.6527   20.7222 C   0  0  0  0  0  0  0  0  0  0  0  0
   10.6412   -3.5089   21.7936 C   0  0  0  0  0  0  0  0  0  0  0  0
   10.4972   -3.8968   24.1589 C   0  0  0  0  0  0  0  0  0  0  0  0
    5.9260   -8.2736   16.5517 C   0  0  0  0  0  0  0  0  0  0  0  0
    3.8816   -9.1166   17.2493 C   0  0  0  0  0  0  0  0  0  0  0  0
   10.1297   -1.6575   23.2324 C   0  0  0  0  0  0  0  0  0  0  0  0
    9.4684   -1.6929   26.7263 F   0  0  0  0  0  0  0  0  0  0  0  0
    7.7963   -7.7906   17.9837 C   0  0  0  0  0  0  0  0  0  0  0  0
   10.5884   -3.0725   16.7902 O   0  0  0  0  0  0  0  0  0  0  0  0
   10.4323   -5.3494   20.3516 C   0  0  0  0  0  0  0  0  0  0  0  0
    7.1156   -7.5454   16.8218 C   0  0  0  0  0  0  0  0  0  0  0  0
   10.3885   -4.4388   19.2773 C   0  0  0  0  0  0  0  0  0  0  0  0
    4.5160   -9.3822   15.0841 C   0  0  0  0  0  0  0  0  0  0  0  0
  1  3  4  0
  1 24  4  0
  2  6  4  0
  2 15  4  0
  3  5  4  0
  3  6  4  0
  4 21  4  0
  4 29  4  0
  5 15  4  0
  5 28  1  0
  6 16  4  0
  7 18  4  0
  7 26  4  0
  8 18  1  0
  8 19  4  0
  8 22  4  0
  9 12  4  0
  9 19  4  0
 10 12  4  0
 10 22  4  0
 11 20  4  0
 11 21  4  0
 12 23  1  0
 13 20  4  0
 13 29  4  0
 14 17  4  0
 14 28  4  0
 15 25  2  0
 16 27  4  0
 17 18  4  0
 20 27  1  0
 24 27  4  0
 26 28  4  0
M  END
$$$$

 Created by Python create_sdf_string function

 29 33  0  0  0  0  0  0  0  0999 V2000
    8.8270   -7.0288   18.4251 C   0  0  0  0  0  0  0  0  0  0  0  0
    9.1576   -4.6236   15.8860 O   0  0  0  0  0  0  0  0  0  0  0  0
    9.1509   -5.9108   17.7177 C   0  0  0  0  0  0  0  0  0  0  0  0
    3.6373   -9.5349   16.0582 N   0  0  0  0  0  0  0  0  0  0  0  0
    9.9275   -4.8001   18.0438 N   0  0  0  0  0  0  0  0  0  0  0  0
    8.5908   -5.7425   16.4412 C   0  0  0  0  0  0  0  0  0  0  0  0
   10.5993   -4.8981   21.6068 C   0  0  0  0  0  0  0  0  0  0  0  0
   10.4258   -3.0106   23.0998 C   0  0  0  0  0  0  0  0  0  0  0  0
   10.2148   -3.4364   25.4200 C   0  0  0  0  0  0  0  0  0  0  0  0
    9.7853   -1.1840   24.4927 C   0  0  0  0  0  0  0  0  0  0  0  0
    5.0276   -8.5227   17.5352 C   0  0  0  0  0  0  0  0  0  0  0  0
    9.8187   -2.0895   25.5800 C   0  0  0  0  0  0  0  0  0  0  0  0
    5.6473   -8.7216   15.3158 C   0  0  0  0  0  0  0  0  0  0  0  0
   10.7581   -3.1233   19.4720 N   0  0  0  0  0  0  0  0  0  0  0  0
    9.9571   -4.0573   16.8866 C   0  0  0  0  0  0  0  0  0  0  0  0
    7.6213   -6.5618   16.0087 C   0  0  0  0  0  0  0  0  0  0  0  0
   10.8583   -2.6527   20.7222 C   0  0  0  0  0  0  0  0  0  0  0  0
   10.6412   -3.5089   21.7936 C   0  0  0  0  0  0  0  0  0  0  0  0
   10.4972   -3.8968   24.1589 C   0  0  0  0  0  0  0  0  0  0  0  0
    5.9260   -8.2736   16.5517 C   0  0  0  0  0  0  0  0  0  0  0  0
    3.8816   -9.1166   17.2493 C   0  0  0  0  0  0  0  0  0  0  0  0
   10.1297   -1.6575   23.2324 C   0  0  0  0  0  0  0  0  0  0  0  0
    9.4684   -1.6929   26.7263 F   0  0  0  0  0  0  0  0  0  0  0  0
    7.7963   -7.7906   17.9837 C   0  0  0  0  0  0  0  0  0  0  0  0
   10.5884   -3.0725   16.7902 O   0  0  0  0  0  0  0  0  0  0  0  0
   10.4323   -5.3494   20.3516 C   0  0  0  0  0  0  0  0  0  0  0  0
    7.1156   -7.5454   16.8218 C   0  0  0  0  0  0  0  0  0  0  0  0
   10.3885   -4.4388   19.2773 C   0  0  0  0  0  0  0  0  0  0  0  0
    4.5160   -9.3822   15.0841 C   0  0  0  0  0  0  0  0  0  0  0  0
  1  3  4  0
  1 24  4  0
  2  6  4  0
  2 15  4  0
  3  5  4  0
  3  6  4  0
  4 21  4  0
  4 29  4  0
  5 15  4  0
  5 28  1  0
  6 16  4  0
  7 18  4  0
  7 26  4  0
  8 18  1  0
  8 19  4  0
  8 22  4  0
  9 12  4  0
  9 19  4  0
 10 12  4  0
 10 22  4  0
 11 20  4  0
 11 21  4  0
 12 23  1  0
 13 20  4  0
 13 29  4  0
 14 17  4  0
 14 28  4  0
 15 25  2  0
 16 27  4  0
 17 18  4  0
 20 27  1  0
 24 27  4  0
 26 28  4  0
M  END
$$$$

 Created by Python create_sdf_string function

 29 33  0  0  0  0  0  0  0  0999 V2000
    8.8270   -7.0288   18.4251 C   0  0  0  0  0  0  0  0  0  0  0  0
    9.1576   -4.6236   15.8860 O   0  0  0  0  0  0  0  0  0  0  0  0
    9.1509   -5.9108   17.7177 C   0  0  0  0  0  0  0  0  0  0  0  0
    3.6373   -9.5349   16.0582 N   0  0  0  0  0  0  0  0  0  0  0  0
    9.9275   -4.8001   18.0438 N   0  0  0  0  0  0  0  0  0  0  0  0
    8.5908   -5.7425   16.4412 C   0  0  0  0  0  0  0  0  0  0  0  0
   10.5993   -4.8981   21.6068 C   0  0  0  0  0  0  0  0  0  0  0  0
   10.4258   -3.0106   23.0998 C   0  0  0  0  0  0  0  0  0  0  0  0
   10.2148   -3.4364   25.4200 C   0  0  0  0  0  0  0  0  0  0  0  0
    9.7853   -1.1840   24.4927 C   0  0  0  0  0  0  0  0  0  0  0  0
    5.0276   -8.5227   17.5352 C   0  0  0  0  0  0  0  0  0  0  0  0
    9.8187   -2.0895   25.5800 C   0  0  0  0  0  0  0  0  0  0  0  0
    5.6473   -8.7216   15.3158 C   0  0  0  0  0  0  0  0  0  0  0  0
   10.7581   -3.1233   19.4720 N   0  0  0  0  0  0  0  0  0  0  0  0
    9.9571   -4.0573   16.8866 C   0  0  0  0  0  0  0  0  0  0  0  0
    7.6213   -6.5618   16.0087 C   0  0  0  0  0  0  0  0  0  0  0  0
   10.8583   -2.6527   20.7222 C   0  0  0  0  0  0  0  0  0  0  0  0
   10.6412   -3.5089   21.7936 C   0  0  0  0  0  0  0  0  0  0  0  0
   10.4972   -3.8968   24.1589 C   0  0  0  0  0  0  0  0  0  0  0  0
    5.9260   -8.2736   16.5517 C   0  0  0  0  0  0  0  0  0  0  0  0
    3.8816   -9.1166   17.2493 C   0  0  0  0  0  0  0  0  0  0  0  0
   10.1297   -1.6575   23.2324 C   0  0  0  0  0  0  0  0  0  0  0  0
    9.4684   -1.6929   26.7263 F   0  0  0  0  0  0  0  0  0  0  0  0
    7.7963   -7.7906   17.9837 C   0  0  0  0  0  0  0  0  0  0  0  0
   10.5884   -3.0725   16.7902 O   0  0  0  0  0  0  0  0  0  0  0  0
   10.4323   -5.3494   20.3516 C   0  0  0  0  0  0  0  0  0  0  0  0
    7.1156   -7.5454   16.8218 C   0  0  0  0  0  0  0  0  0  0  0  0
   10.3885   -4.4388   19.2773 C   0  0  0  0  0  0  0  0  0  0  0  0
    4.5160   -9.3822   15.0841 C   0  0  0  0  0  0  0  0  0  0  0  0
  1  3  4  0
  1 24  4  0
  2  6  4  0
  2 15  4  0
  3  5  4  0
  3  6  4  0
  4 21  4  0
  4 29  4  0
  5 15  4  0
  5 28  1  0
  6 16  4  0
  7 18  4  0
  7 26  4  0
  8 18  1  0
  8 19  4  0
  8 22  4  0
  9 12  4  0
  9 19  4  0
 10 12  4  0
 10 22  4  0
 11 20  4  0
 11 21  4  0
 12 23  1  0
 13 20  4  0
 13 29  4  0
 14 17  4  0
 14 28  4  0
 15 25  2  0
 16 27  4  0
 17 18  4  0
 20 27  1  0
 24 27  4  0
 26 28  4  0
M  END
$$$$

 Created by Python create_sdf_string function

 29 33  0  0  0  0  0  0  0  0999 V2000
    8.8270   -7.0288   18.4251 C   0  0  0  0  0  0  0  0  0  0  0  0
    9.1576   -4.6236   15.8860 O   0  0  0  0  0  0  0  0  0  0  0  0
    9.1509   -5.9108   17.7177 C   0  0  0  0  0  0  0  0  0  0  0  0
    3.6373   -9.5349   16.0582 N   0  0  0  0  0  0  0  0  0  0  0  0
    9.9275   -4.8001   18.0438 N   0  0  0  0  0  0  0  0  0  0  0  0
    8.5908   -5.7425   16.4412 C   0  0  0  0  0  0  0  0  0  0  0  0
   10.5993   -4.8981   21.6068 C   0  0  0  0  0  0  0  0  0  0  0  0
   10.4258   -3.0106   23.0998 C   0  0  0  0  0  0  0  0  0  0  0  0
   10.2148   -3.4364   25.4200 C   0  0  0  0  0  0  0  0  0  0  0  0
    9.7853   -1.1840   24.4927 C   0  0  0  0  0  0  0  0  0  0  0  0
    5.0276   -8.5227   17.5352 C   0  0  0  0  0  0  0  0  0  0  0  0
    9.8187   -2.0895   25.5800 C   0  0  0  0  0  0  0  0  0  0  0  0
    5.6473   -8.7216   15.3158 C   0  0  0  0  0  0  0  0  0  0  0  0
   10.7581   -3.1233   19.4720 N   0  0  0  0  0  0  0  0  0  0  0  0
    9.9571   -4.0573   16.8866 C   0  0  0  0  0  0  0  0  0  0  0  0
    7.6213   -6.5618   16.0087 C   0  0  0  0  0  0  0  0  0  0  0  0
   10.8583   -2.6527   20.7222 C   0  0  0  0  0  0  0  0  0  0  0  0
   10.6412   -3.5089   21.7936 C   0  0  0  0  0  0  0  0  0  0  0  0
   10.4972   -3.8968   24.1589 C   0  0  0  0  0  0  0  0  0  0  0  0
    5.9260   -8.2736   16.5517 C   0  0  0  0  0  0  0  0  0  0  0  0
    3.8816   -9.1166   17.2493 C   0  0  0  0  0  0  0  0  0  0  0  0
   10.1297   -1.6575   23.2324 C   0  0  0  0  0  0  0  0  0  0  0  0
    9.4684   -1.6929   26.7263 F   0  0  0  0  0  0  0  0  0  0  0  0
    7.7963   -7.7906   17.9837 C   0  0  0  0  0  0  0  0  0  0  0  0
   10.5884   -3.0725   16.7902 O   0  0  0  0  0  0  0  0  0  0  0  0
   10.4323   -5.3494   20.3516 C   0  0  0  0  0  0  0  0  0  0  0  0
    7.1156   -7.5454   16.8218 C   0  0  0  0  0  0  0  0  0  0  0  0
   10.3885   -4.4388   19.2773 C   0  0  0  0  0  0  0  0  0  0  0  0
    4.5160   -9.3822   15.0841 C   0  0  0  0  0  0  0  0  0  0  0  0
  1  3  4  0
  1 24  4  0
  2  6  4  0
  2 15  4  0
  3  5  4  0
  3  6  4  0
  4 21  4  0
  4 29  4  0
  5 15  4  0
  5 28  1  0
  6 16  4  0
  7 18  4  0
  7 26  4  0
  8 18  1  0
  8 19  4  0
  8 22  4  0
  9 12  4  0
  9 19  4  0
 10 12  4  0
 10 22  4  0
 11 20  4  0
 11 21  4  0
 12 23  1  0
 13 20  4  0
 13 29  4  0
 14 17  4  0
 14 28  4  0
 15 25  2  0
 16 27  4  0
 17 18  4  0
 20 27  1  0
 24 27  4  0
 26 28  4  0
M  END
$$$$

 Created by Python create_sdf_string function

 29 33  0  0  0  0  0  0  0  0999 V2000
    8.8270   -7.0288   18.4251 C   0  0  0  0  0  0  0  0  0  0  0  0
    9.1576   -4.6236   15.8860 O   0  0  0  0  0  0  0  0  0  0  0  0
    9.1509   -5.9108   17.7177 C   0  0  0  0  0  0  0  0  0  0  0  0
    3.6373   -9.5349   16.0582 N   0  0  0  0  0  0  0  0  0  0  0  0
    9.9275   -4.8001   18.0438 N   0  0  0  0  0  0  0  0  0  0  0  0
    8.5908   -5.7425   16.4412 C   0  0  0  0  0  0  0  0  0  0  0  0
   10.5993   -4.8981   21.6068 C   0  0  0  0  0  0  0  0  0  0  0  0
   10.4258   -3.0106   23.0998 C   0  0  0  0  0  0  0  0  0  0  0  0
   10.2148   -3.4364   25.4200 C   0  0  0  0  0  0  0  0  0  0  0  0
    9.7853   -1.1840   24.4927 C   0  0  0  0  0  0  0  0  0  0  0  0
    5.0276   -8.5227   17.5352 C   0  0  0  0  0  0  0  0  0  0  0  0
    9.8187   -2.0895   25.5800 C   0  0  0  0  0  0  0  0  0  0  0  0
    5.6473   -8.7216   15.3158 C   0  0  0  0  0  0  0  0  0  0  0  0
   10.7581   -3.1233   19.4720 N   0  0  0  0  0  0  0  0  0  0  0  0
    9.9571   -4.0573   16.8866 C   0  0  0  0  0  0  0  0  0  0  0  0
    7.6213   -6.5618   16.0087 C   0  0  0  0  0  0  0  0  0  0  0  0
   10.8583   -2.6527   20.7222 C   0  0  0  0  0  0  0  0  0  0  0  0
   10.6412   -3.5089   21.7936 C   0  0  0  0  0  0  0  0  0  0  0  0
   10.4972   -3.8968   24.1589 C   0  0  0  0  0  0  0  0  0  0  0  0
    5.9260   -8.2736   16.5517 C   0  0  0  0  0  0  0  0  0  0  0  0
    3.8816   -9.1166   17.2493 C   0  0  0  0  0  0  0  0  0  0  0  0
   10.1297   -1.6575   23.2324 C   0  0  0  0  0  0  0  0  0  0  0  0
    9.4684   -1.6929   26.7263 F   0  0  0  0  0  0  0  0  0  0  0  0
    7.7963   -7.7906   17.9837 C   0  0  0  0  0  0  0  0  0  0  0  0
   10.5884   -3.0725   16.7902 O   0  0  0  0  0  0  0  0  0  0  0  0
   10.4323   -5.3494   20.3516 C   0  0  0  0  0  0  0  0  0  0  0  0
    7.1156   -7.5454   16.8218 C   0  0  0  0  0  0  0  0  0  0  0  0
   10.3885   -4.4388   19.2773 C   0  0  0  0  0  0  0  0  0  0  0  0
    4.5160   -9.3822   15.0841 C   0  0  0  0  0  0  0  0  0  0  0  0
  1  3  4  0
  1 24  4  0
  2  6  4  0
  2 15  4  0
  3  5  4  0
  3  6  4  0
  4 21  4  0
  4 29  4  0
  5 15  4  0
  5 28  1  0
  6 16  4  0
  7 18  4  0
  7 26  4  0
  8 18  1  0
  8 19  4  0
  8 22  4  0
  9 12  4  0
  9 19  4  0
 10 12  4  0
 10 22  4  0
 11 20  4  0
 11 21  4  0
 12 23  1  0
 13 20  4  0
 13 29  4  0
 14 17  4  0
 14 28  4  0
 15 25  2  0
 16 27  4  0
 17 18  4  0
 20 27  1  0
 24 27  4  0
 26 28  4  0
M  END
$$$$

 Created by Python create_sdf_string function

 29 33  0  0  0  0  0  0  0  0999 V2000
    8.8270   -7.0288   18.4251 C   0  0  0  0  0  0  0  0  0  0  0  0
    9.1576   -4.6236   15.8860 O   0  0  0  0  0  0  0  0  0  0  0  0
    9.1509   -5.9108   17.7177 C   0  0  0  0  0  0  0  0  0  0  0  0
    3.6373   -9.5349   16.0582 N   0  0  0  0  0  0  0  0  0  0  0  0
    9.9275   -4.8001   18.0438 N   0  0  0  0  0  0  0  0  0  0  0  0
    8.5908   -5.7425   16.4412 C   0  0  0  0  0  0  0  0  0  0  0  0
   10.5993   -4.8981   21.6068 C   0  0  0  0  0  0  0  0  0  0  0  0
   10.4258   -3.0106   23.0998 C   0  0  0  0  0  0  0  0  0  0  0  0
   10.2148   -3.4364   25.4200 C   0  0  0  0  0  0  0  0  0  0  0  0
    9.7853   -1.1840   24.4927 C   0  0  0  0  0  0  0  0  0  0  0  0
    5.0276   -8.5227   17.5352 C   0  0  0  0  0  0  0  0  0  0  0  0
    9.8187   -2.0895   25.5800 C   0  0  0  0  0  0  0  0  0  0  0  0
    5.6473   -8.7216   15.3158 C   0  0  0  0  0  0  0  0  0  0  0  0
   10.7581   -3.1233   19.4720 N   0  0  0  0  0  0  0  0  0  0  0  0
    9.9571   -4.0573   16.8866 C   0  0  0  0  0  0  0  0  0  0  0  0
    7.6213   -6.5618   16.0087 C   0  0  0  0  0  0  0  0  0  0  0  0
   10.8583   -2.6527   20.7222 C   0  0  0  0  0  0  0  0  0  0  0  0
   10.6412   -3.5089   21.7936 C   0  0  0  0  0  0  0  0  0  0  0  0
   10.4972   -3.8968   24.1589 C   0  0  0  0  0  0  0  0  0  0  0  0
    5.9260   -8.2736   16.5517 C   0  0  0  0  0  0  0  0  0  0  0  0
    3.8816   -9.1166   17.2493 C   0  0  0  0  0  0  0  0  0  0  0  0
   10.1297   -1.6575   23.2324 C   0  0  0  0  0  0  0  0  0  0  0  0
    9.4684   -1.6929   26.7263 F   0  0  0  0  0  0  0  0  0  0  0  0
    7.7963   -7.7906   17.9837 C   0  0  0  0  0  0  0  0  0  0  0  0
   10.5884   -3.0725   16.7902 O   0  0  0  0  0  0  0  0  0  0  0  0
   10.4323   -5.3494   20.3516 C   0  0  0  0  0  0  0  0  0  0  0  0
    7.1156   -7.5454   16.8218 C   0  0  0  0  0  0  0  0  0  0  0  0
   10.3885   -4.4388   19.2773 C   0  0  0  0  0  0  0  0  0  0  0  0
    4.5160   -9.3822   15.0841 C   0  0  0  0  0  0  0  0  0  0  0  0
  1  3  4  0
  1 24  4  0
  2  6  4  0
  2 15  4  0
  3  5  4  0
  3  6  4  0
  4 21  4  0
  4 29  4  0
  5 15  4  0
  5 28  1  0
  6 16  4  0
  7 18  4  0
  7 26  4  0
  8 18  1  0
  8 19  4  0
  8 22  4  0
  9 12  4  0
  9 19  4  0
 10 12  4  0
 10 22  4  0
 11 20  4  0
 11 21  4  0
 12 23  1  0
 13 20  4  0
 13 29  4  0
 14 17  4  0
 14 28  4  0
 15 25  2  0
 16 27  4  0
 17 18  4  0
 20 27  1  0
 24 27  4  0
 26 28  4  0
M  END
$$$$

 Created by Python create_sdf_string function

 29 33  0  0  0  0  0  0  0  0999 V2000
    8.8270   -7.0288   18.4251 C   0  0  0  0  0  0  0  0  0  0  0  0
    9.1576   -4.6236   15.8860 O   0  0  0  0  0  0  0  0  0  0  0  0
    9.1509   -5.9108   17.7177 C   0  0  0  0  0  0  0  0  0  0  0  0
    3.6373   -9.5349   16.0582 N   0  0  0  0  0  0  0  0  0  0  0  0
    9.9275   -4.8001   18.0438 N   0  0  0  0  0  0  0  0  0  0  0  0
    8.5908   -5.7425   16.4412 C   0  0  0  0  0  0  0  0  0  0  0  0
   10.5993   -4.8981   21.6068 C   0  0  0  0  0  0  0  0  0  0  0  0
   10.4258   -3.0106   23.0998 C   0  0  0  0  0  0  0  0  0  0  0  0
   10.2148   -3.4364   25.4200 C   0  0  0  0  0  0  0  0  0  0  0  0
    9.7853   -1.1840   24.4927 C   0  0  0  0  0  0  0  0  0  0  0  0
    5.0276   -8.5227   17.5352 C   0  0  0  0  0  0  0  0  0  0  0  0
    9.8187   -2.0895   25.5800 C   0  0  0  0  0  0  0  0  0  0  0  0
    5.6473   -8.7216   15.3158 C   0  0  0  0  0  0  0  0  0  0  0  0
   10.7581   -3.1233   19.4720 N   0  0  0  0  0  0  0  0  0  0  0  0
    9.9571   -4.0573   16.8866 C   0  0  0  0  0  0  0  0  0  0  0  0
    7.6213   -6.5618   16.0087 C   0  0  0  0  0  0  0  0  0  0  0  0
   10.8583   -2.6527   20.7222 C   0  0  0  0  0  0  0  0  0  0  0  0
   10.6412   -3.5089   21.7936 C   0  0  0  0  0  0  0  0  0  0  0  0
   10.4972   -3.8968   24.1589 C   0  0  0  0  0  0  0  0  0  0  0  0
    5.9260   -8.2736   16.5517 C   0  0  0  0  0  0  0  0  0  0  0  0
    3.8816   -9.1166   17.2493 C   0  0  0  0  0  0  0  0  0  0  0  0
   10.1297   -1.6575   23.2324 C   0  0  0  0  0  0  0  0  0  0  0  0
    9.4684   -1.6929   26.7263 F   0  0  0  0  0  0  0  0  0  0  0  0
    7.7963   -7.7906   17.9837 C   0  0  0  0  0  0  0  0  0  0  0  0
   10.5884   -3.0725   16.7902 O   0  0  0  0  0  0  0  0  0  0  0  0
   10.4323   -5.3494   20.3516 C   0  0  0  0  0  0  0  0  0  0  0  0
    7.1156   -7.5454   16.8218 C   0  0  0  0  0  0  0  0  0  0  0  0
   10.3885   -4.4388   19.2773 C   0  0  0  0  0  0  0  0  0  0  0  0
    4.5160   -9.3822   15.0841 C   0  0  0  0  0  0  0  0  0  0  0  0
  1  3  4  0
  1 24  4  0
  2  6  4  0
  2 15  4  0
  3  5  4  0
  3  6  4  0
  4 21  4  0
  4 29  4  0
  5 15  4  0
  5 28  1  0
  6 16  4  0
  7 18  4  0
  7 26  4  0
  8 18  1  0
  8 19  4  0
  8 22  4  0
  9 12  4  0
  9 19  4  0
 10 12  4  0
 10 22  4  0
 11 20  4  0
 11 21  4  0
 12 23  1  0
 13 20  4  0
 13 29  4  0
 14 17  4  0
 14 28  4  0
 15 25  2  0
 16 27  4  0
 17 18  4  0
 20 27  1  0
 24 27  4  0
 26 28  4  0
M  END
$$$$

 Created by Python create_sdf_string function

 29 33  0  0  0  0  0  0  0  0999 V2000
    8.8270   -7.0288   18.4251 C   0  0  0  0  0  0  0  0  0  0  0  0
    9.1576   -4.6236   15.8860 O   0  0  0  0  0  0  0  0  0  0  0  0
    9.1509   -5.9108   17.7177 C   0  0  0  0  0  0  0  0  0  0  0  0
    3.6373   -9.5349   16.0582 N   0  0  0  0  0  0  0  0  0  0  0  0
    9.9275   -4.8001   18.0438 N   0  0  0  0  0  0  0  0  0  0  0  0
    8.5908   -5.7425   16.4412 C   0  0  0  0  0  0  0  0  0  0  0  0
   10.5993   -4.8981   21.6068 C   0  0  0  0  0  0  0  0  0  0  0  0
   10.4258   -3.0106   23.0998 C   0  0  0  0  0  0  0  0  0  0  0  0
   10.2148   -3.4364   25.4200 C   0  0  0  0  0  0  0  0  0  0  0  0
    9.7853   -1.1840   24.4927 C   0  0  0  0  0  0  0  0  0  0  0  0
    5.0276   -8.5227   17.5352 C   0  0  0  0  0  0  0  0  0  0  0  0
    9.8187   -2.0895   25.5800 C   0  0  0  0  0  0  0  0  0  0  0  0
    5.6473   -8.7216   15.3158 C   0  0  0  0  0  0  0  0  0  0  0  0
   10.7581   -3.1233   19.4720 N   0  0  0  0  0  0  0  0  0  0  0  0
    9.9571   -4.0573   16.8866 C   0  0  0  0  0  0  0  0  0  0  0  0
    7.6213   -6.5618   16.0087 C   0  0  0  0  0  0  0  0  0  0  0  0
   10.8583   -2.6527   20.7222 C   0  0  0  0  0  0  0  0  0  0  0  0
   10.6412   -3.5089   21.7936 C   0  0  0  0  0  0  0  0  0  0  0  0
   10.4972   -3.8968   24.1589 C   0  0  0  0  0  0  0  0  0  0  0  0
    5.9260   -8.2736   16.5517 C   0  0  0  0  0  0  0  0  0  0  0  0
    3.8816   -9.1166   17.2493 C   0  0  0  0  0  0  0  0  0  0  0  0
   10.1297   -1.6575   23.2324 C   0  0  0  0  0  0  0  0  0  0  0  0
    9.4684   -1.6929   26.7263 F   0  0  0  0  0  0  0  0  0  0  0  0
    7.7963   -7.7906   17.9837 C   0  0  0  0  0  0  0  0  0  0  0  0
   10.5884   -3.0725   16.7902 O   0  0  0  0  0  0  0  0  0  0  0  0
   10.4323   -5.3494   20.3516 C   0  0  0  0  0  0  0  0  0  0  0  0
    7.1156   -7.5454   16.8218 C   0  0  0  0  0  0  0  0  0  0  0  0
   10.3885   -4.4388   19.2773 C   0  0  0  0  0  0  0  0  0  0  0  0
    4.5160   -9.3822   15.0841 C   0  0  0  0  0  0  0  0  0  0  0  0
  1  3  4  0
  1 24  4  0
  2  6  4  0
  2 15  4  0
  3  5  4  0
  3  6  4  0
  4 21  4  0
  4 29  4  0
  5 15  4  0
  5 28  1  0
  6 16  4  0
  7 18  4  0
  7 26  4  0
  8 18  1  0
  8 19  4  0
  8 22  4  0
  9 12  4  0
  9 19  4  0
 10 12  4  0
 10 22  4  0
 11 20  4  0
 11 21  4  0
 12 23  1  0
 13 20  4  0
 13 29  4  0
 14 17  4  0
 14 28  4  0
 15 25  2  0
 16 27  4  0
 17 18  4  0
 20 27  1  0
 24 27  4  0
 26 28  4  0
M  END
$$$$

 Created by Python create_sdf_string function

 29 33  0  0  0  0  0  0  0  0999 V2000
    8.8270   -7.0288   18.4251 C   0  0  0  0  0  0  0  0  0  0  0  0
    9.1576   -4.6236   15.8860 O   0  0  0  0  0  0  0  0  0  0  0  0
    9.1509   -5.9108   17.7177 C   0  0  0  0  0  0  0  0  0  0  0  0
    3.6373   -9.5349   16.0582 N   0  0  0  0  0  0  0  0  0  0  0  0
    9.9275   -4.8001   18.0438 N   0  0  0  0  0  0  0  0  0  0  0  0
    8.5908   -5.7425   16.4412 C   0  0  0  0  0  0  0  0  0  0  0  0
   10.5993   -4.8981   21.6068 C   0  0  0  0  0  0  0  0  0  0  0  0
   10.4258   -3.0106   23.0998 C   0  0  0  0  0  0  0  0  0  0  0  0
   10.2148   -3.4364   25.4200 C   0  0  0  0  0  0  0  0  0  0  0  0
    9.7853   -1.1840   24.4927 C   0  0  0  0  0  0  0  0  0  0  0  0
    5.0276   -8.5227   17.5352 C   0  0  0  0  0  0  0  0  0  0  0  0
    9.8187   -2.0895   25.5800 C   0  0  0  0  0  0  0  0  0  0  0  0
    5.6473   -8.7216   15.3158 C   0  0  0  0  0  0  0  0  0  0  0  0
   10.7581   -3.1233   19.4720 N   0  0  0  0  0  0  0  0  0  0  0  0
    9.9571   -4.0573   16.8866 C   0  0  0  0  0  0  0  0  0  0  0  0
    7.6213   -6.5618   16.0087 C   0  0  0  0  0  0  0  0  0  0  0  0
   10.8583   -2.6527   20.7222 C   0  0  0  0  0  0  0  0  0  0  0  0
   10.6412   -3.5089   21.7936 C   0  0  0  0  0  0  0  0  0  0  0  0
   10.4972   -3.8968   24.1589 C   0  0  0  0  0  0  0  0  0  0  0  0
    5.9260   -8.2736   16.5517 C   0  0  0  0  0  0  0  0  0  0  0  0
    3.8816   -9.1166   17.2493 C   0  0  0  0  0  0  0  0  0  0  0  0
   10.1297   -1.6575   23.2324 C   0  0  0  0  0  0  0  0  0  0  0  0
    9.4684   -1.6929   26.7263 F   0  0  0  0  0  0  0  0  0  0  0  0
    7.7963   -7.7906   17.9837 C   0  0  0  0  0  0  0  0  0  0  0  0
   10.5884   -3.0725   16.7902 O   0  0  0  0  0  0  0  0  0  0  0  0
   10.4323   -5.3494   20.3516 C   0  0  0  0  0  0  0  0  0  0  0  0
    7.1156   -7.5454   16.8218 C   0  0  0  0  0  0  0  0  0  0  0  0
   10.3885   -4.4388   19.2773 C   0  0  0  0  0  0  0  0  0  0  0  0
    4.5160   -9.3822   15.0841 C   0  0  0  0  0  0  0  0  0  0  0  0
  1  3  4  0
  1 24  4  0
  2  6  4  0
  2 15  4  0
  3  5  4  0
  3  6  4  0
  4 21  4  0
  4 29  4  0
  5 15  4  0
  5 28  1  0
  6 16  4  0
  7 18  4  0
  7 26  4  0
  8 18  1  0
  8 19  4  0
  8 22  4  0
  9 12  4  0
  9 19  4  0
 10 12  4  0
 10 22  4  0
 11 20  4  0
 11 21  4  0
 12 23  1  0
 13 20  4  0
 13 29  4  0
 14 17  4  0
 14 28  4  0
 15 25  2  0
 16 27  4  0
 17 18  4  0
 20 27  1  0
 24 27  4  0
 26 28  4  0
M  END
$$$$

 Created by Python create_sdf_string function

 29 33  0  0  0  0  0  0  0  0999 V2000
    8.8270   -7.0288   18.4251 C   0  0  0  0  0  0  0  0  0  0  0  0
    9.1576   -4.6236   15.8860 O   0  0  0  0  0  0  0  0  0  0  0  0
    9.1509   -5.9108   17.7177 C   0  0  0  0  0  0  0  0  0  0  0  0
    3.6373   -9.5349   16.0582 N   0  0  0  0  0  0  0  0  0  0  0  0
    9.9275   -4.8001   18.0438 N   0  0  0  0  0  0  0  0  0  0  0  0
    8.5908   -5.7425   16.4412 C   0  0  0  0  0  0  0  0  0  0  0  0
   10.5993   -4.8981   21.6068 C   0  0  0  0  0  0  0  0  0  0  0  0
   10.4258   -3.0106   23.0998 C   0  0  0  0  0  0  0  0  0  0  0  0
   10.2148   -3.4364   25.4200 C   0  0  0  0  0  0  0  0  0  0  0  0
    9.7853   -1.1840   24.4927 C   0  0  0  0  0  0  0  0  0  0  0  0
    5.0276   -8.5227   17.5352 C   0  0  0  0  0  0  0  0  0  0  0  0
    9.8187   -2.0895   25.5800 C   0  0  0  0  0  0  0  0  0  0  0  0
    5.6473   -8.7216   15.3158 C   0  0  0  0  0  0  0  0  0  0  0  0
   10.7581   -3.1233   19.4720 N   0  0  0  0  0  0  0  0  0  0  0  0
    9.9571   -4.0573   16.8866 C   0  0  0  0  0  0  0  0  0  0  0  0
    7.6213   -6.5618   16.0087 C   0  0  0  0  0  0  0  0  0  0  0  0
   10.8583   -2.6527   20.7222 C   0  0  0  0  0  0  0  0  0  0  0  0
   10.6412   -3.5089   21.7936 C   0  0  0  0  0  0  0  0  0  0  0  0
   10.4972   -3.8968   24.1589 C   0  0  0  0  0  0  0  0  0  0  0  0
    5.9260   -8.2736   16.5517 C   0  0  0  0  0  0  0  0  0  0  0  0
    3.8816   -9.1166   17.2493 C   0  0  0  0  0  0  0  0  0  0  0  0
   10.1297   -1.6575   23.2324 C   0  0  0  0  0  0  0  0  0  0  0  0
    9.4684   -1.6929   26.7263 F   0  0  0  0  0  0  0  0  0  0  0  0
    7.7963   -7.7906   17.9837 C   0  0  0  0  0  0  0  0  0  0  0  0
   10.5884   -3.0725   16.7902 O   0  0  0  0  0  0  0  0  0  0  0  0
   10.4323   -5.3494   20.3516 C   0  0  0  0  0  0  0  0  0  0  0  0
    7.1156   -7.5454   16.8218 C   0  0  0  0  0  0  0  0  0  0  0  0
   10.3885   -4.4388   19.2773 C   0  0  0  0  0  0  0  0  0  0  0  0
    4.5160   -9.3822   15.0841 C   0  0  0  0  0  0  0  0  0  0  0  0
  1  3  4  0
  1 24  4  0
  2  6  4  0
  2 15  4  0
  3  5  4  0
  3  6  4  0
  4 21  4  0
  4 29  4  0
  5 15  4  0
  5 28  1  0
  6 16  4  0
  7 18  4  0
  7 26  4  0
  8 18  1  0
  8 19  4  0
  8 22  4  0
  9 12  4  0
  9 19  4  0
 10 12  4  0
 10 22  4  0
 11 20  4  0
 11 21  4  0
 12 23  1  0
 13 20  4  0
 13 29  4  0
 14 17  4  0
 14 28  4  0
 15 25  2  0
 16 27  4  0
 17 18  4  0
 20 27  1  0
 24 27  4  0
 26 28  4  0
M  END
$$$$

 Created by Python create_sdf_string function

 29 33  0  0  0  0  0  0  0  0999 V2000
    8.8270   -7.0288   18.4251 C   0  0  0  0  0  0  0  0  0  0  0  0
    9.1576   -4.6236   15.8860 O   0  0  0  0  0  0  0  0  0  0  0  0
    9.1509   -5.9108   17.7177 C   0  0  0  0  0  0  0  0  0  0  0  0
    3.6373   -9.5349   16.0582 N   0  0  0  0  0  0  0  0  0  0  0  0
    9.9275   -4.8001   18.0438 N   0  0  0  0  0  0  0  0  0  0  0  0
    8.5908   -5.7425   16.4412 C   0  0  0  0  0  0  0  0  0  0  0  0
   10.5993   -4.8981   21.6068 C   0  0  0  0  0  0  0  0  0  0  0  0
   10.4258   -3.0106   23.0998 C   0  0  0  0  0  0  0  0  0  0  0  0
   10.2148   -3.4364   25.4200 C   0  0  0  0  0  0  0  0  0  0  0  0
    9.7853   -1.1840   24.4927 C   0  0  0  0  0  0  0  0  0  0  0  0
    5.0276   -8.5227   17.5352 C   0  0  0  0  0  0  0  0  0  0  0  0
    9.8187   -2.0895   25.5800 C   0  0  0  0  0  0  0  0  0  0  0  0
    5.6473   -8.7216   15.3158 C   0  0  0  0  0  0  0  0  0  0  0  0
   10.7581   -3.1233   19.4720 N   0  0  0  0  0  0  0  0  0  0  0  0
    9.9571   -4.0573   16.8866 C   0  0  0  0  0  0  0  0  0  0  0  0
    7.6213   -6.5618   16.0087 C   0  0  0  0  0  0  0  0  0  0  0  0
   10.8583   -2.6527   20.7222 C   0  0  0  0  0  0  0  0  0  0  0  0
   10.6412   -3.5089   21.7936 C   0  0  0  0  0  0  0  0  0  0  0  0
   10.4972   -3.8968   24.1589 C   0  0  0  0  0  0  0  0  0  0  0  0
    5.9260   -8.2736   16.5517 C   0  0  0  0  0  0  0  0  0  0  0  0
    3.8816   -9.1166   17.2493 C   0  0  0  0  0  0  0  0  0  0  0  0
   10.1297   -1.6575   23.2324 C   0  0  0  0  0  0  0  0  0  0  0  0
    9.4684   -1.6929   26.7263 F   0  0  0  0  0  0  0  0  0  0  0  0
    7.7963   -7.7906   17.9837 C   0  0  0  0  0  0  0  0  0  0  0  0
   10.5884   -3.0725   16.7902 O   0  0  0  0  0  0  0  0  0  0  0  0
   10.4323   -5.3494   20.3516 C   0  0  0  0  0  0  0  0  0  0  0  0
    7.1156   -7.5454   16.8218 C   0  0  0  0  0  0  0  0  0  0  0  0
   10.3885   -4.4388   19.2773 C   0  0  0  0  0  0  0  0  0  0  0  0
    4.5160   -9.3822   15.0841 C   0  0  0  0  0  0  0  0  0  0  0  0
  1  3  4  0
  1 24  4  0
  2  6  4  0
  2 15  4  0
  3  5  4  0
  3  6  4  0
  4 21  4  0
  4 29  4  0
  5 15  4  0
  5 28  1  0
  6 16  4  0
  7 18  4  0
  7 26  4  0
  8 18  1  0
  8 19  4  0
  8 22  4  0
  9 12  4  0
  9 19  4  0
 10 12  4  0
 10 22  4  0
 11 20  4  0
 11 21  4  0
 12 23  1  0
 13 20  4  0
 13 29  4  0
 14 17  4  0
 14 28  4  0
 15 25  2  0
 16 27  4  0
 17 18  4  0
 20 27  1  0
 24 27  4  0
 26 28  4  0
M  END
$$$$

 Created by Python create_sdf_string function

 29 33  0  0  0  0  0  0  0  0999 V2000
    8.8270   -7.0288   18.4251 C   0  0  0  0  0  0  0  0  0  0  0  0
    9.1576   -4.6236   15.8860 O   0  0  0  0  0  0  0  0  0  0  0  0
    9.1509   -5.9108   17.7177 C   0  0  0  0  0  0  0  0  0  0  0  0
    3.6373   -9.5349   16.0582 N   0  0  0  0  0  0  0  0  0  0  0  0
    9.9275   -4.8001   18.0438 N   0  0  0  0  0  0  0  0  0  0  0  0
    8.5908   -5.7425   16.4412 C   0  0  0  0  0  0  0  0  0  0  0  0
   10.5993   -4.8981   21.6068 C   0  0  0  0  0  0  0  0  0  0  0  0
   10.4258   -3.0106   23.0998 C   0  0  0  0  0  0  0  0  0  0  0  0
   10.2148   -3.4364   25.4200 C   0  0  0  0  0  0  0  0  0  0  0  0
    9.7853   -1.1840   24.4927 C   0  0  0  0  0  0  0  0  0  0  0  0
    5.0276   -8.5227   17.5352 C   0  0  0  0  0  0  0  0  0  0  0  0
    9.8187   -2.0895   25.5800 C   0  0  0  0  0  0  0  0  0  0  0  0
    5.6473   -8.7216   15.3158 C   0  0  0  0  0  0  0  0  0  0  0  0
   10.7581   -3.1233   19.4720 N   0  0  0  0  0  0  0  0  0  0  0  0
    9.9571   -4.0573   16.8866 C   0  0  0  0  0  0  0  0  0  0  0  0
    7.6213   -6.5618   16.0087 C   0  0  0  0  0  0  0  0  0  0  0  0
   10.8583   -2.6527   20.7222 C   0  0  0  0  0  0  0  0  0  0  0  0
   10.6412   -3.5089   21.7936 C   0  0  0  0  0  0  0  0  0  0  0  0
   10.4972   -3.8968   24.1589 C   0  0  0  0  0  0  0  0  0  0  0  0
    5.9260   -8.2736   16.5517 C   0  0  0  0  0  0  0  0  0  0  0  0
    3.8816   -9.1166   17.2493 C   0  0  0  0  0  0  0  0  0  0  0  0
   10.1297   -1.6575   23.2324 C   0  0  0  0  0  0  0  0  0  0  0  0
    9.4684   -1.6929   26.7263 F   0  0  0  0  0  0  0  0  0  0  0  0
    7.7963   -7.7906   17.9837 C   0  0  0  0  0  0  0  0  0  0  0  0
   10.5884   -3.0725   16.7902 O   0  0  0  0  0  0  0  0  0  0  0  0
   10.4323   -5.3494   20.3516 C   0  0  0  0  0  0  0  0  0  0  0  0
    7.1156   -7.5454   16.8218 C   0  0  0  0  0  0  0  0  0  0  0  0
   10.3885   -4.4388   19.2773 C   0  0  0  0  0  0  0  0  0  0  0  0
    4.5160   -9.3822   15.0841 C   0  0  0  0  0  0  0  0  0  0  0  0
  1  3  4  0
  1 24  4  0
  2  6  4  0
  2 15  4  0
  3  5  4  0
  3  6  4  0
  4 21  4  0
  4 29  4  0
  5 15  4  0
  5 28  1  0
  6 16  4  0
  7 18  4  0
  7 26  4  0
  8 18  1  0
  8 19  4  0
  8 22  4  0
  9 12  4  0
  9 19  4  0
 10 12  4  0
 10 22  4  0
 11 20  4  0
 11 21  4  0
 12 23  1  0
 13 20  4  0
 13 29  4  0
 14 17  4  0
 14 28  4  0
 15 25  2  0
 16 27  4  0
 17 18  4  0
 20 27  1  0
 24 27  4  0
 26 28  4  0
M  END
$$$$

 Created by Python create_sdf_string function

 29 33  0  0  0  0  0  0  0  0999 V2000
    8.8270   -7.0288   18.4251 C   0  0  0  0  0  0  0  0  0  0  0  0
    9.1576   -4.6236   15.8860 O   0  0  0  0  0  0  0  0  0  0  0  0
    9.1509   -5.9108   17.7177 C   0  0  0  0  0  0  0  0  0  0  0  0
    3.6373   -9.5349   16.0582 N   0  0  0  0  0  0  0  0  0  0  0  0
    9.9275   -4.8001   18.0438 N   0  0  0  0  0  0  0  0  0  0  0  0
    8.5908   -5.7425   16.4412 C   0  0  0  0  0  0  0  0  0  0  0  0
   10.5993   -4.8981   21.6068 C   0  0  0  0  0  0  0  0  0  0  0  0
   10.4258   -3.0106   23.0998 C   0  0  0  0  0  0  0  0  0  0  0  0
   10.2148   -3.4364   25.4200 C   0  0  0  0  0  0  0  0  0  0  0  0
    9.7853   -1.1840   24.4927 C   0  0  0  0  0  0  0  0  0  0  0  0
    5.0276   -8.5227   17.5352 C   0  0  0  0  0  0  0  0  0  0  0  0
    9.8187   -2.0895   25.5800 C   0  0  0  0  0  0  0  0  0  0  0  0
    5.6473   -8.7216   15.3158 C   0  0  0  0  0  0  0  0  0  0  0  0
   10.7581   -3.1233   19.4720 N   0  0  0  0  0  0  0  0  0  0  0  0
    9.9571   -4.0573   16.8866 C   0  0  0  0  0  0  0  0  0  0  0  0
    7.6213   -6.5618   16.0087 C   0  0  0  0  0  0  0  0  0  0  0  0
   10.8583   -2.6527   20.7222 C   0  0  0  0  0  0  0  0  0  0  0  0
   10.6412   -3.5089   21.7936 C   0  0  0  0  0  0  0  0  0  0  0  0
   10.4972   -3.8968   24.1589 C   0  0  0  0  0  0  0  0  0  0  0  0
    5.9260   -8.2736   16.5517 C   0  0  0  0  0  0  0  0  0  0  0  0
    3.8816   -9.1166   17.2493 C   0  0  0  0  0  0  0  0  0  0  0  0
   10.1297   -1.6575   23.2324 C   0  0  0  0  0  0  0  0  0  0  0  0
    9.4684   -1.6929   26.7263 F   0  0  0  0  0  0  0  0  0  0  0  0
    7.7963   -7.7906   17.9837 C   0  0  0  0  0  0  0  0  0  0  0  0
   10.5884   -3.0725   16.7902 O   0  0  0  0  0  0  0  0  0  0  0  0
   10.4323   -5.3494   20.3516 C   0  0  0  0  0  0  0  0  0  0  0  0
    7.1156   -7.5454   16.8218 C   0  0  0  0  0  0  0  0  0  0  0  0
   10.3885   -4.4388   19.2773 C   0  0  0  0  0  0  0  0  0  0  0  0
    4.5160   -9.3822   15.0841 C   0  0  0  0  0  0  0  0  0  0  0  0
  1  3  4  0
  1 24  4  0
  2  6  4  0
  2 15  4  0
  3  5  4  0
  3  6  4  0
  4 21  4  0
  4 29  4  0
  5 15  4  0
  5 28  1  0
  6 16  4  0
  7 18  4  0
  7 26  4  0
  8 18  1  0
  8 19  4  0
  8 22  4  0
  9 12  4  0
  9 19  4  0
 10 12  4  0
 10 22  4  0
 11 20  4  0
 11 21  4  0
 12 23  1  0
 13 20  4  0
 13 29  4  0
 14 17  4  0
 14 28  4  0
 15 25  2  0
 16 27  4  0
 17 18  4  0
 20 27  1  0
 24 27  4  0
 26 28  4  0
M  END
$$$$

 Created by Python create_sdf_string function

 29 33  0  0  0  0  0  0  0  0999 V2000
    8.8270   -7.0288   18.4251 C   0  0  0  0  0  0  0  0  0  0  0  0
    9.1576   -4.6236   15.8860 O   0  0  0  0  0  0  0  0  0  0  0  0
    9.1509   -5.9108   17.7177 C   0  0  0  0  0  0  0  0  0  0  0  0
    3.6373   -9.5349   16.0582 N   0  0  0  0  0  0  0  0  0  0  0  0
    9.9275   -4.8001   18.0438 N   0  0  0  0  0  0  0  0  0  0  0  0
    8.5908   -5.7425   16.4412 C   0  0  0  0  0  0  0  0  0  0  0  0
   10.5993   -4.8981   21.6068 C   0  0  0  0  0  0  0  0  0  0  0  0
   10.4258   -3.0106   23.0998 C   0  0  0  0  0  0  0  0  0  0  0  0
   10.2148   -3.4364   25.4200 C   0  0  0  0  0  0  0  0  0  0  0  0
    9.7853   -1.1840   24.4927 C   0  0  0  0  0  0  0  0  0  0  0  0
    5.0276   -8.5227   17.5352 C   0  0  0  0  0  0  0  0  0  0  0  0
    9.8187   -2.0895   25.5800 C   0  0  0  0  0  0  0  0  0  0  0  0
    5.6473   -8.7216   15.3158 C   0  0  0  0  0  0  0  0  0  0  0  0
   10.7581   -3.1233   19.4720 N   0  0  0  0  0  0  0  0  0  0  0  0
    9.9571   -4.0573   16.8866 C   0  0  0  0  0  0  0  0  0  0  0  0
    7.6213   -6.5618   16.0087 C   0  0  0  0  0  0  0  0  0  0  0  0
   10.8583   -2.6527   20.7222 C   0  0  0  0  0  0  0  0  0  0  0  0
   10.6412   -3.5089   21.7936 C   0  0  0  0  0  0  0  0  0  0  0  0
   10.4972   -3.8968   24.1589 C   0  0  0  0  0  0  0  0  0  0  0  0
    5.9260   -8.2736   16.5517 C   0  0  0  0  0  0  0  0  0  0  0  0
    3.8816   -9.1166   17.2493 C   0  0  0  0  0  0  0  0  0  0  0  0
   10.1297   -1.6575   23.2324 C   0  0  0  0  0  0  0  0  0  0  0  0
    9.4684   -1.6929   26.7263 F   0  0  0  0  0  0  0  0  0  0  0  0
    7.7963   -7.7906   17.9837 C   0  0  0  0  0  0  0  0  0  0  0  0
   10.5884   -3.0725   16.7902 O   0  0  0  0  0  0  0  0  0  0  0  0
   10.4323   -5.3494   20.3516 C   0  0  0  0  0  0  0  0  0  0  0  0
    7.1156   -7.5454   16.8218 C   0  0  0  0  0  0  0  0  0  0  0  0
   10.3885   -4.4388   19.2773 C   0  0  0  0  0  0  0  0  0  0  0  0
    4.5160   -9.3822   15.0841 C   0  0  0  0  0  0  0  0  0  0  0  0
  1  3  4  0
  1 24  4  0
  2  6  4  0
  2 15  4  0
  3  5  4  0
  3  6  4  0
  4 21  4  0
  4 29  4  0
  5 15  4  0
  5 28  1  0
  6 16  4  0
  7 18  4  0
  7 26  4  0
  8 18  1  0
  8 19  4  0
  8 22  4  0
  9 12  4  0
  9 19  4  0
 10 12  4  0
 10 22  4  0
 11 20  4  0
 11 21  4  0
 12 23  1  0
 13 20  4  0
 13 29  4  0
 14 17  4  0
 14 28  4  0
 15 25  2  0
 16 27  4  0
 17 18  4  0
 20 27  1  0
 24 27  4  0
 26 28  4  0
M  END
$$$$

 Created by Python create_sdf_string function

 29 33  0  0  0  0  0  0  0  0999 V2000
    8.8270   -7.0288   18.4251 C   0  0  0  0  0  0  0  0  0  0  0  0
    9.1576   -4.6236   15.8860 O   0  0  0  0  0  0  0  0  0  0  0  0
    9.1509   -5.9108   17.7177 C   0  0  0  0  0  0  0  0  0  0  0  0
    3.6373   -9.5349   16.0582 N   0  0  0  0  0  0  0  0  0  0  0  0
    9.9275   -4.8001   18.0438 N   0  0  0  0  0  0  0  0  0  0  0  0
    8.5908   -5.7425   16.4412 C   0  0  0  0  0  0  0  0  0  0  0  0
   10.5993   -4.8981   21.6068 C   0  0  0  0  0  0  0  0  0  0  0  0
   10.4258   -3.0106   23.0998 C   0  0  0  0  0  0  0  0  0  0  0  0
   10.2148   -3.4364   25.4200 C   0  0  0  0  0  0  0  0  0  0  0  0
    9.7853   -1.1840   24.4927 C   0  0  0  0  0  0  0  0  0  0  0  0
    5.0276   -8.5227   17.5352 C   0  0  0  0  0  0  0  0  0  0  0  0
    9.8187   -2.0895   25.5800 C   0  0  0  0  0  0  0  0  0  0  0  0
    5.6473   -8.7216   15.3158 C   0  0  0  0  0  0  0  0  0  0  0  0
   10.7581   -3.1233   19.4720 N   0  0  0  0  0  0  0  0  0  0  0  0
    9.9571   -4.0573   16.8866 C   0  0  0  0  0  0  0  0  0  0  0  0
    7.6213   -6.5618   16.0087 C   0  0  0  0  0  0  0  0  0  0  0  0
   10.8583   -2.6527   20.7222 C   0  0  0  0  0  0  0  0  0  0  0  0
   10.6412   -3.5089   21.7936 C   0  0  0  0  0  0  0  0  0  0  0  0
   10.4972   -3.8968   24.1589 C   0  0  0  0  0  0  0  0  0  0  0  0
    5.9260   -8.2736   16.5517 C   0  0  0  0  0  0  0  0  0  0  0  0
    3.8816   -9.1166   17.2493 C   0  0  0  0  0  0  0  0  0  0  0  0
   10.1297   -1.6575   23.2324 C   0  0  0  0  0  0  0  0  0  0  0  0
    9.4684   -1.6929   26.7263 F   0  0  0  0  0  0  0  0  0  0  0  0
    7.7963   -7.7906   17.9837 C   0  0  0  0  0  0  0  0  0  0  0  0
   10.5884   -3.0725   16.7902 O   0  0  0  0  0  0  0  0  0  0  0  0
   10.4323   -5.3494   20.3516 C   0  0  0  0  0  0  0  0  0  0  0  0
    7.1156   -7.5454   16.8218 C   0  0  0  0  0  0  0  0  0  0  0  0
   10.3885   -4.4388   19.2773 C   0  0  0  0  0  0  0  0  0  0  0  0
    4.5160   -9.3822   15.0841 C   0  0  0  0  0  0  0  0  0  0  0  0
  1  3  4  0
  1 24  4  0
  2  6  4  0
  2 15  4  0
  3  5  4  0
  3  6  4  0
  4 21  4  0
  4 29  4  0
  5 15  4  0
  5 28  1  0
  6 16  4  0
  7 18  4  0
  7 26  4  0
  8 18  1  0
  8 19  4  0
  8 22  4  0
  9 12  4  0
  9 19  4  0
 10 12  4  0
 10 22  4  0
 11 20  4  0
 11 21  4  0
 12 23  1  0
 13 20  4  0
 13 29  4  0
 14 17  4  0
 14 28  4  0
 15 25  2  0
 16 27  4  0
 17 18  4  0
 20 27  1  0
 24 27  4  0
 26 28  4  0
M  END
$$$$

 Created by Python create_sdf_string function

 29 33  0  0  0  0  0  0  0  0999 V2000
    8.8270   -7.0288   18.4251 C   0  0  0  0  0  0  0  0  0  0  0  0
    9.1576   -4.6236   15.8860 O   0  0  0  0  0  0  0  0  0  0  0  0
    9.1509   -5.9108   17.7177 C   0  0  0  0  0  0  0  0  0  0  0  0
    3.6373   -9.5349   16.0582 N   0  0  0  0  0  0  0  0  0  0  0  0
    9.9275   -4.8001   18.0438 N   0  0  0  0  0  0  0  0  0  0  0  0
    8.5908   -5.7425   16.4412 C   0  0  0  0  0  0  0  0  0  0  0  0
   10.5993   -4.8981   21.6068 C   0  0  0  0  0  0  0  0  0  0  0  0
   10.4258   -3.0106   23.0998 C   0  0  0  0  0  0  0  0  0  0  0  0
   10.2148   -3.4364   25.4200 C   0  0  0  0  0  0  0  0  0  0  0  0
    9.7853   -1.1840   24.4927 C   0  0  0  0  0  0  0  0  0  0  0  0
    5.0276   -8.5227   17.5352 C   0  0  0  0  0  0  0  0  0  0  0  0
    9.8187   -2.0895   25.5800 C   0  0  0  0  0  0  0  0  0  0  0  0
    5.6473   -8.7216   15.3158 C   0  0  0  0  0  0  0  0  0  0  0  0
   10.7581   -3.1233   19.4720 N   0  0  0  0  0  0  0  0  0  0  0  0
    9.9571   -4.0573   16.8866 C   0  0  0  0  0  0  0  0  0  0  0  0
    7.6213   -6.5618   16.0087 C   0  0  0  0  0  0  0  0  0  0  0  0
   10.8583   -2.6527   20.7222 C   0  0  0  0  0  0  0  0  0  0  0  0
   10.6412   -3.5089   21.7936 C   0  0  0  0  0  0  0  0  0  0  0  0
   10.4972   -3.8968   24.1589 C   0  0  0  0  0  0  0  0  0  0  0  0
    5.9260   -8.2736   16.5517 C   0  0  0  0  0  0  0  0  0  0  0  0
    3.8816   -9.1166   17.2493 C   0  0  0  0  0  0  0  0  0  0  0  0
   10.1297   -1.6575   23.2324 C   0  0  0  0  0  0  0  0  0  0  0  0
    9.4684   -1.6929   26.7263 F   0  0  0  0  0  0  0  0  0  0  0  0
    7.7963   -7.7906   17.9837 C   0  0  0  0  0  0  0  0  0  0  0  0
   10.5884   -3.0725   16.7902 O   0  0  0  0  0  0  0  0  0  0  0  0
   10.4323   -5.3494   20.3516 C   0  0  0  0  0  0  0  0  0  0  0  0
    7.1156   -7.5454   16.8218 C   0  0  0  0  0  0  0  0  0  0  0  0
   10.3885   -4.4388   19.2773 C   0  0  0  0  0  0  0  0  0  0  0  0
    4.5160   -9.3822   15.0841 C   0  0  0  0  0  0  0  0  0  0  0  0
  1  3  4  0
  1 24  4  0
  2  6  4  0
  2 15  4  0
  3  5  4  0
  3  6  4  0
  4 21  4  0
  4 29  4  0
  5 15  4  0
  5 28  1  0
  6 16  4  0
  7 18  4  0
  7 26  4  0
  8 18  1  0
  8 19  4  0
  8 22  4  0
  9 12  4  0
  9 19  4  0
 10 12  4  0
 10 22  4  0
 11 20  4  0
 11 21  4  0
 12 23  1  0
 13 20  4  0
 13 29  4  0
 14 17  4  0
 14 28  4  0
 15 25  2  0
 16 27  4  0
 17 18  4  0
 20 27  1  0
 24 27  4  0
 26 28  4  0
M  END
$$$$

 Created by Python create_sdf_string function

 29 33  0  0  0  0  0  0  0  0999 V2000
    8.8270   -7.0288   18.4251 C   0  0  0  0  0  0  0  0  0  0  0  0
    9.1576   -4.6236   15.8860 O   0  0  0  0  0  0  0  0  0  0  0  0
    9.1509   -5.9108   17.7177 C   0  0  0  0  0  0  0  0  0  0  0  0
    3.6373   -9.5349   16.0582 N   0  0  0  0  0  0  0  0  0  0  0  0
    9.9275   -4.8001   18.0438 N   0  0  0  0  0  0  0  0  0  0  0  0
    8.5908   -5.7425   16.4412 C   0  0  0  0  0  0  0  0  0  0  0  0
   10.5993   -4.8981   21.6068 C   0  0  0  0  0  0  0  0  0  0  0  0
   10.4258   -3.0106   23.0998 C   0  0  0  0  0  0  0  0  0  0  0  0
   10.2148   -3.4364   25.4200 C   0  0  0  0  0  0  0  0  0  0  0  0
    9.7853   -1.1840   24.4927 C   0  0  0  0  0  0  0  0  0  0  0  0
    5.0276   -8.5227   17.5352 C   0  0  0  0  0  0  0  0  0  0  0  0
    9.8187   -2.0895   25.5800 C   0  0  0  0  0  0  0  0  0  0  0  0
    5.6473   -8.7216   15.3158 C   0  0  0  0  0  0  0  0  0  0  0  0
   10.7581   -3.1233   19.4720 N   0  0  0  0  0  0  0  0  0  0  0  0
    9.9571   -4.0573   16.8866 C   0  0  0  0  0  0  0  0  0  0  0  0
    7.6213   -6.5618   16.0087 C   0  0  0  0  0  0  0  0  0  0  0  0
   10.8583   -2.6527   20.7222 C   0  0  0  0  0  0  0  0  0  0  0  0
   10.6412   -3.5089   21.7936 C   0  0  0  0  0  0  0  0  0  0  0  0
   10.4972   -3.8968   24.1589 C   0  0  0  0  0  0  0  0  0  0  0  0
    5.9260   -8.2736   16.5517 C   0  0  0  0  0  0  0  0  0  0  0  0
    3.8816   -9.1166   17.2493 C   0  0  0  0  0  0  0  0  0  0  0  0
   10.1297   -1.6575   23.2324 C   0  0  0  0  0  0  0  0  0  0  0  0
    9.4684   -1.6929   26.7263 F   0  0  0  0  0  0  0  0  0  0  0  0
    7.7963   -7.7906   17.9837 C   0  0  0  0  0  0  0  0  0  0  0  0
   10.5884   -3.0725   16.7902 O   0  0  0  0  0  0  0  0  0  0  0  0
   10.4323   -5.3494   20.3516 C   0  0  0  0  0  0  0  0  0  0  0  0
    7.1156   -7.5454   16.8218 C   0  0  0  0  0  0  0  0  0  0  0  0
   10.3885   -4.4388   19.2773 C   0  0  0  0  0  0  0  0  0  0  0  0
    4.5160   -9.3822   15.0841 C   0  0  0  0  0  0  0  0  0  0  0  0
  1  3  4  0
  1 24  4  0
  2  6  4  0
  2 15  4  0
  3  5  4  0
  3  6  4  0
  4 21  4  0
  4 29  4  0
  5 15  4  0
  5 28  1  0
  6 16  4  0
  7 18  4  0
  7 26  4  0
  8 18  1  0
  8 19  4  0
  8 22  4  0
  9 12  4  0
  9 19  4  0
 10 12  4  0
 10 22  4  0
 11 20  4  0
 11 21  4  0
 12 23  1  0
 13 20  4  0
 13 29  4  0
 14 17  4  0
 14 28  4  0
 15 25  2  0
 16 27  4  0
 17 18  4  0
 20 27  1  0
 24 27  4  0
 26 28  4  0
M  END
$$$$

 Created by Python create_sdf_string function

 29 33  0  0  0  0  0  0  0  0999 V2000
    8.8270   -7.0288   18.4251 C   0  0  0  0  0  0  0  0  0  0  0  0
    9.1576   -4.6236   15.8860 O   0  0  0  0  0  0  0  0  0  0  0  0
    9.1509   -5.9108   17.7177 C   0  0  0  0  0  0  0  0  0  0  0  0
    3.6373   -9.5349   16.0582 N   0  0  0  0  0  0  0  0  0  0  0  0
    9.9275   -4.8001   18.0438 N   0  0  0  0  0  0  0  0  0  0  0  0
    8.5908   -5.7425   16.4412 C   0  0  0  0  0  0  0  0  0  0  0  0
   10.5993   -4.8981   21.6068 C   0  0  0  0  0  0  0  0  0  0  0  0
   10.4258   -3.0106   23.0998 C   0  0  0  0  0  0  0  0  0  0  0  0
   10.2148   -3.4364   25.4200 C   0  0  0  0  0  0  0  0  0  0  0  0
    9.7853   -1.1840   24.4927 C   0  0  0  0  0  0  0  0  0  0  0  0
    5.0276   -8.5227   17.5352 C   0  0  0  0  0  0  0  0  0  0  0  0
    9.8187   -2.0895   25.5800 C   0  0  0  0  0  0  0  0  0  0  0  0
    5.6473   -8.7216   15.3158 C   0  0  0  0  0  0  0  0  0  0  0  0
   10.7581   -3.1233   19.4720 N   0  0  0  0  0  0  0  0  0  0  0  0
    9.9571   -4.0573   16.8866 C   0  0  0  0  0  0  0  0  0  0  0  0
    7.6213   -6.5618   16.0087 C   0  0  0  0  0  0  0  0  0  0  0  0
   10.8583   -2.6527   20.7222 C   0  0  0  0  0  0  0  0  0  0  0  0
   10.6412   -3.5089   21.7936 C   0  0  0  0  0  0  0  0  0  0  0  0
   10.4972   -3.8968   24.1589 C   0  0  0  0  0  0  0  0  0  0  0  0
    5.9260   -8.2736   16.5517 C   0  0  0  0  0  0  0  0  0  0  0  0
    3.8816   -9.1166   17.2493 C   0  0  0  0  0  0  0  0  0  0  0  0
   10.1297   -1.6575   23.2324 C   0  0  0  0  0  0  0  0  0  0  0  0
    9.4684   -1.6929   26.7263 F   0  0  0  0  0  0  0  0  0  0  0  0
    7.7963   -7.7906   17.9837 C   0  0  0  0  0  0  0  0  0  0  0  0
   10.5884   -3.0725   16.7902 O   0  0  0  0  0  0  0  0  0  0  0  0
   10.4323   -5.3494   20.3516 C   0  0  0  0  0  0  0  0  0  0  0  0
    7.1156   -7.5454   16.8218 C   0  0  0  0  0  0  0  0  0  0  0  0
   10.3885   -4.4388   19.2773 C   0  0  0  0  0  0  0  0  0  0  0  0
    4.5160   -9.3822   15.0841 C   0  0  0  0  0  0  0  0  0  0  0  0
  1  3  4  0
  1 24  4  0
  2  6  4  0
  2 15  4  0
  3  5  4  0
  3  6  4  0
  4 21  4  0
  4 29  4  0
  5 15  4  0
  5 28  1  0
  6 16  4  0
  7 18  4  0
  7 26  4  0
  8 18  1  0
  8 19  4  0
  8 22  4  0
  9 12  4  0
  9 19  4  0
 10 12  4  0
 10 22  4  0
 11 20  4  0
 11 21  4  0
 12 23  1  0
 13 20  4  0
 13 29  4  0
 14 17  4  0
 14 28  4  0
 15 25  2  0
 16 27  4  0
 17 18  4  0
 20 27  1  0
 24 27  4  0
 26 28  4  0
M  END
$$$$

 Created by Python create_sdf_string function

 29 33  0  0  0  0  0  0  0  0999 V2000
    8.8270   -7.0288   18.4251 C   0  0  0  0  0  0  0  0  0  0  0  0
    9.1576   -4.6236   15.8860 O   0  0  0  0  0  0  0  0  0  0  0  0
    9.1509   -5.9108   17.7177 C   0  0  0  0  0  0  0  0  0  0  0  0
    3.6373   -9.5349   16.0582 N   0  0  0  0  0  0  0  0  0  0  0  0
    9.9275   -4.8001   18.0438 N   0  0  0  0  0  0  0  0  0  0  0  0
    8.5908   -5.7425   16.4412 C   0  0  0  0  0  0  0  0  0  0  0  0
   10.5993   -4.8981   21.6068 C   0  0  0  0  0  0  0  0  0  0  0  0
   10.4258   -3.0106   23.0998 C   0  0  0  0  0  0  0  0  0  0  0  0
   10.2148   -3.4364   25.4200 C   0  0  0  0  0  0  0  0  0  0  0  0
    9.7853   -1.1840   24.4927 C   0  0  0  0  0  0  0  0  0  0  0  0
    5.0276   -8.5227   17.5352 C   0  0  0  0  0  0  0  0  0  0  0  0
    9.8187   -2.0895   25.5800 C   0  0  0  0  0  0  0  0  0  0  0  0
    5.6473   -8.7216   15.3158 C   0  0  0  0  0  0  0  0  0  0  0  0
   10.7581   -3.1233   19.4720 N   0  0  0  0  0  0  0  0  0  0  0  0
    9.9571   -4.0573   16.8866 C   0  0  0  0  0  0  0  0  0  0  0  0
    7.6213   -6.5618   16.0087 C   0  0  0  0  0  0  0  0  0  0  0  0
   10.8583   -2.6527   20.7222 C   0  0  0  0  0  0  0  0  0  0  0  0
   10.6412   -3.5089   21.7936 C   0  0  0  0  0  0  0  0  0  0  0  0
   10.4972   -3.8968   24.1589 C   0  0  0  0  0  0  0  0  0  0  0  0
    5.9260   -8.2736   16.5517 C   0  0  0  0  0  0  0  0  0  0  0  0
    3.8816   -9.1166   17.2493 C   0  0  0  0  0  0  0  0  0  0  0  0
   10.1297   -1.6575   23.2324 C   0  0  0  0  0  0  0  0  0  0  0  0
    9.4684   -1.6929   26.7263 F   0  0  0  0  0  0  0  0  0  0  0  0
    7.7963   -7.7906   17.9837 C   0  0  0  0  0  0  0  0  0  0  0  0
   10.5884   -3.0725   16.7902 O   0  0  0  0  0  0  0  0  0  0  0  0
   10.4323   -5.3494   20.3516 C   0  0  0  0  0  0  0  0  0  0  0  0
    7.1156   -7.5454   16.8218 C   0  0  0  0  0  0  0  0  0  0  0  0
   10.3885   -4.4388   19.2773 C   0  0  0  0  0  0  0  0  0  0  0  0
    4.5160   -9.3822   15.0841 C   0  0  0  0  0  0  0  0  0  0  0  0
  1  3  4  0
  1 24  4  0
  2  6  4  0
  2 15  4  0
  3  5  4  0
  3  6  4  0
  4 21  4  0
  4 29  4  0
  5 15  4  0
  5 28  1  0
  6 16  4  0
  7 18  4  0
  7 26  4  0
  8 18  1  0
  8 19  4  0
  8 22  4  0
  9 12  4  0
  9 19  4  0
 10 12  4  0
 10 22  4  0
 11 20  4  0
 11 21  4  0
 12 23  1  0
 13 20  4  0
 13 29  4  0
 14 17  4  0
 14 28  4  0
 15 25  2  0
 16 27  4  0
 17 18  4  0
 20 27  1  0
 24 27  4  0
 26 28  4  0
M  END
$$$$

 Created by Python create_sdf_string function

 29 33  0  0  0  0  0  0  0  0999 V2000
    8.8270   -7.0288   18.4251 C   0  0  0  0  0  0  0  0  0  0  0  0
    9.1576   -4.6236   15.8860 O   0  0  0  0  0  0  0  0  0  0  0  0
    9.1509   -5.9108   17.7177 C   0  0  0  0  0  0  0  0  0  0  0  0
    3.6373   -9.5349   16.0582 N   0  0  0  0  0  0  0  0  0  0  0  0
    9.9275   -4.8001   18.0438 N   0  0  0  0  0  0  0  0  0  0  0  0
    8.5908   -5.7425   16.4412 C   0  0  0  0  0  0  0  0  0  0  0  0
   10.5993   -4.8981   21.6068 C   0  0  0  0  0  0  0  0  0  0  0  0
   10.4258   -3.0106   23.0998 C   0  0  0  0  0  0  0  0  0  0  0  0
   10.2148   -3.4364   25.4200 C   0  0  0  0  0  0  0  0  0  0  0  0
    9.7853   -1.1840   24.4927 C   0  0  0  0  0  0  0  0  0  0  0  0
    5.0276   -8.5227   17.5352 C   0  0  0  0  0  0  0  0  0  0  0  0
    9.8187   -2.0895   25.5800 C   0  0  0  0  0  0  0  0  0  0  0  0
    5.6473   -8.7216   15.3158 C   0  0  0  0  0  0  0  0  0  0  0  0
   10.7581   -3.1233   19.4720 N   0  0  0  0  0  0  0  0  0  0  0  0
    9.9571   -4.0573   16.8866 C   0  0  0  0  0  0  0  0  0  0  0  0
    7.6213   -6.5618   16.0087 C   0  0  0  0  0  0  0  0  0  0  0  0
   10.8583   -2.6527   20.7222 C   0  0  0  0  0  0  0  0  0  0  0  0
   10.6412   -3.5089   21.7936 C   0  0  0  0  0  0  0  0  0  0  0  0
   10.4972   -3.8968   24.1589 C   0  0  0  0  0  0  0  0  0  0  0  0
    5.9260   -8.2736   16.5517 C   0  0  0  0  0  0  0  0  0  0  0  0
    3.8816   -9.1166   17.2493 C   0  0  0  0  0  0  0  0  0  0  0  0
   10.1297   -1.6575   23.2324 C   0  0  0  0  0  0  0  0  0  0  0  0
    9.4684   -1.6929   26.7263 F   0  0  0  0  0  0  0  0  0  0  0  0
    7.7963   -7.7906   17.9837 C   0  0  0  0  0  0  0  0  0  0  0  0
   10.5884   -3.0725   16.7902 O   0  0  0  0  0  0  0  0  0  0  0  0
   10.4323   -5.3494   20.3516 C   0  0  0  0  0  0  0  0  0  0  0  0
    7.1156   -7.5454   16.8218 C   0  0  0  0  0  0  0  0  0  0  0  0
   10.3885   -4.4388   19.2773 C   0  0  0  0  0  0  0  0  0  0  0  0
    4.5160   -9.3822   15.0841 C   0  0  0  0  0  0  0  0  0  0  0  0
  1  3  4  0
  1 24  4  0
  2  6  4  0
  2 15  4  0
  3  5  4  0
  3  6  4  0
  4 21  4  0
  4 29  4  0
  5 15  4  0
  5 28  1  0
  6 16  4  0
  7 18  4  0
  7 26  4  0
  8 18  1  0
  8 19  4  0
  8 22  4  0
  9 12  4  0
  9 19  4  0
 10 12  4  0
 10 22  4  0
 11 20  4  0
 11 21  4  0
 12 23  1  0
 13 20  4  0
 13 29  4  0
 14 17  4  0
 14 28  4  0
 15 25  2  0
 16 27  4  0
 17 18  4  0
 20 27  1  0
 24 27  4  0
 26 28  4  0
M  END
$$$$

 Created by Python create_sdf_string function

 29 33  0  0  0  0  0  0  0  0999 V2000
    8.8270   -7.0288   18.4251 C   0  0  0  0  0  0  0  0  0  0  0  0
    9.1576   -4.6236   15.8860 O   0  0  0  0  0  0  0  0  0  0  0  0
    9.1509   -5.9108   17.7177 C   0  0  0  0  0  0  0  0  0  0  0  0
    3.6373   -9.5349   16.0582 N   0  0  0  0  0  0  0  0  0  0  0  0
    9.9275   -4.8001   18.0438 N   0  0  0  0  0  0  0  0  0  0  0  0
    8.5908   -5.7425   16.4412 C   0  0  0  0  0  0  0  0  0  0  0  0
   10.5993   -4.8981   21.6068 C   0  0  0  0  0  0  0  0  0  0  0  0
   10.4258   -3.0106   23.0998 C   0  0  0  0  0  0  0  0  0  0  0  0
   10.2148   -3.4364   25.4200 C   0  0  0  0  0  0  0  0  0  0  0  0
    9.7853   -1.1840   24.4927 C   0  0  0  0  0  0  0  0  0  0  0  0
    5.0276   -8.5227   17.5352 C   0  0  0  0  0  0  0  0  0  0  0  0
    9.8187   -2.0895   25.5800 C   0  0  0  0  0  0  0  0  0  0  0  0
    5.6473   -8.7216   15.3158 C   0  0  0  0  0  0  0  0  0  0  0  0
   10.7581   -3.1233   19.4720 N   0  0  0  0  0  0  0  0  0  0  0  0
    9.9571   -4.0573   16.8866 C   0  0  0  0  0  0  0  0  0  0  0  0
    7.6213   -6.5618   16.0087 C   0  0  0  0  0  0  0  0  0  0  0  0
   10.8583   -2.6527   20.7222 C   0  0  0  0  0  0  0  0  0  0  0  0
   10.6412   -3.5089   21.7936 C   0  0  0  0  0  0  0  0  0  0  0  0
   10.4972   -3.8968   24.1589 C   0  0  0  0  0  0  0  0  0  0  0  0
    5.9260   -8.2736   16.5517 C   0  0  0  0  0  0  0  0  0  0  0  0
    3.8816   -9.1166   17.2493 C   0  0  0  0  0  0  0  0  0  0  0  0
   10.1297   -1.6575   23.2324 C   0  0  0  0  0  0  0  0  0  0  0  0
    9.4684   -1.6929   26.7263 F   0  0  0  0  0  0  0  0  0  0  0  0
    7.7963   -7.7906   17.9837 C   0  0  0  0  0  0  0  0  0  0  0  0
   10.5884   -3.0725   16.7902 O   0  0  0  0  0  0  0  0  0  0  0  0
   10.4323   -5.3494   20.3516 C   0  0  0  0  0  0  0  0  0  0  0  0
    7.1156   -7.5454   16.8218 C   0  0  0  0  0  0  0  0  0  0  0  0
   10.3885   -4.4388   19.2773 C   0  0  0  0  0  0  0  0  0  0  0  0
    4.5160   -9.3822   15.0841 C   0  0  0  0  0  0  0  0  0  0  0  0
  1  3  4  0
  1 24  4  0
  2  6  4  0
  2 15  4  0
  3  5  4  0
  3  6  4  0
  4 21  4  0
  4 29  4  0
  5 15  4  0
  5 28  1  0
  6 16  4  0
  7 18  4  0
  7 26  4  0
  8 18  1  0
  8 19  4  0
  8 22  4  0
  9 12  4  0
  9 19  4  0
 10 12  4  0
 10 22  4  0
 11 20  4  0
 11 21  4  0
 12 23  1  0
 13 20  4  0
 13 29  4  0
 14 17  4  0
 14 28  4  0
 15 25  2  0
 16 27  4  0
 17 18  4  0
 20 27  1  0
 24 27  4  0
 26 28  4  0
M  END
$$$$

 Created by Python create_sdf_string function

 29 33  0  0  0  0  0  0  0  0999 V2000
    8.8270   -7.0288   18.4251 C   0  0  0  0  0  0  0  0  0  0  0  0
    9.1576   -4.6236   15.8860 O   0  0  0  0  0  0  0  0  0  0  0  0
    9.1509   -5.9108   17.7177 C   0  0  0  0  0  0  0  0  0  0  0  0
    3.6373   -9.5349   16.0582 N   0  0  0  0  0  0  0  0  0  0  0  0
    9.9275   -4.8001   18.0438 N   0  0  0  0  0  0  0  0  0  0  0  0
    8.5908   -5.7425   16.4412 C   0  0  0  0  0  0  0  0  0  0  0  0
   10.5993   -4.8981   21.6068 C   0  0  0  0  0  0  0  0  0  0  0  0
   10.4258   -3.0106   23.0998 C   0  0  0  0  0  0  0  0  0  0  0  0
   10.2148   -3.4364   25.4200 C   0  0  0  0  0  0  0  0  0  0  0  0
    9.7853   -1.1840   24.4927 C   0  0  0  0  0  0  0  0  0  0  0  0
    5.0276   -8.5227   17.5352 C   0  0  0  0  0  0  0  0  0  0  0  0
    9.8187   -2.0895   25.5800 C   0  0  0  0  0  0  0  0  0  0  0  0
    5.6473   -8.7216   15.3158 C   0  0  0  0  0  0  0  0  0  0  0  0
   10.7581   -3.1233   19.4720 N   0  0  0  0  0  0  0  0  0  0  0  0
    9.9571   -4.0573   16.8866 C   0  0  0  0  0  0  0  0  0  0  0  0
    7.6213   -6.5618   16.0087 C   0  0  0  0  0  0  0  0  0  0  0  0
   10.8583   -2.6527   20.7222 C   0  0  0  0  0  0  0  0  0  0  0  0
   10.6412   -3.5089   21.7936 C   0  0  0  0  0  0  0  0  0  0  0  0
   10.4972   -3.8968   24.1589 C   0  0  0  0  0  0  0  0  0  0  0  0
    5.9260   -8.2736   16.5517 C   0  0  0  0  0  0  0  0  0  0  0  0
    3.8816   -9.1166   17.2493 C   0  0  0  0  0  0  0  0  0  0  0  0
   10.1297   -1.6575   23.2324 C   0  0  0  0  0  0  0  0  0  0  0  0
    9.4684   -1.6929   26.7263 F   0  0  0  0  0  0  0  0  0  0  0  0
    7.7963   -7.7906   17.9837 C   0  0  0  0  0  0  0  0  0  0  0  0
   10.5884   -3.0725   16.7902 O   0  0  0  0  0  0  0  0  0  0  0  0
   10.4323   -5.3494   20.3516 C   0  0  0  0  0  0  0  0  0  0  0  0
    7.1156   -7.5454   16.8218 C   0  0  0  0  0  0  0  0  0  0  0  0
   10.3885   -4.4388   19.2773 C   0  0  0  0  0  0  0  0  0  0  0  0
    4.5160   -9.3822   15.0841 C   0  0  0  0  0  0  0  0  0  0  0  0
  1  3  4  0
  1 24  4  0
  2  6  4  0
  2 15  4  0
  3  5  4  0
  3  6  4  0
  4 21  4  0
  4 29  4  0
  5 15  4  0
  5 28  1  0
  6 16  4  0
  7 18  4  0
  7 26  4  0
  8 18  1  0
  8 19  4  0
  8 22  4  0
  9 12  4  0
  9 19  4  0
 10 12  4  0
 10 22  4  0
 11 20  4  0
 11 21  4  0
 12 23  1  0
 13 20  4  0
 13 29  4  0
 14 17  4  0
 14 28  4  0
 15 25  2  0
 16 27  4  0
 17 18  4  0
 20 27  1  0
 24 27  4  0
 26 28  4  0
M  END
$$$$

 Created by Python create_sdf_string function

 29 33  0  0  0  0  0  0  0  0999 V2000
    8.8270   -7.0288   18.4251 C   0  0  0  0  0  0  0  0  0  0  0  0
    9.1576   -4.6236   15.8860 O   0  0  0  0  0  0  0  0  0  0  0  0
    9.1509   -5.9108   17.7177 C   0  0  0  0  0  0  0  0  0  0  0  0
    3.6373   -9.5349   16.0582 N   0  0  0  0  0  0  0  0  0  0  0  0
    9.9275   -4.8001   18.0438 N   0  0  0  0  0  0  0  0  0  0  0  0
    8.5908   -5.7425   16.4412 C   0  0  0  0  0  0  0  0  0  0  0  0
   10.5993   -4.8981   21.6068 C   0  0  0  0  0  0  0  0  0  0  0  0
   10.4258   -3.0106   23.0998 C   0  0  0  0  0  0  0  0  0  0  0  0
   10.2148   -3.4364   25.4200 C   0  0  0  0  0  0  0  0  0  0  0  0
    9.7853   -1.1840   24.4927 C   0  0  0  0  0  0  0  0  0  0  0  0
    5.0276   -8.5227   17.5352 C   0  0  0  0  0  0  0  0  0  0  0  0
    9.8187   -2.0895   25.5800 C   0  0  0  0  0  0  0  0  0  0  0  0
    5.6473   -8.7216   15.3158 C   0  0  0  0  0  0  0  0  0  0  0  0
   10.7581   -3.1233   19.4720 N   0  0  0  0  0  0  0  0  0  0  0  0
    9.9571   -4.0573   16.8866 C   0  0  0  0  0  0  0  0  0  0  0  0
    7.6213   -6.5618   16.0087 C   0  0  0  0  0  0  0  0  0  0  0  0
   10.8583   -2.6527   20.7222 C   0  0  0  0  0  0  0  0  0  0  0  0
   10.6412   -3.5089   21.7936 C   0  0  0  0  0  0  0  0  0  0  0  0
   10.4972   -3.8968   24.1589 C   0  0  0  0  0  0  0  0  0  0  0  0
    5.9260   -8.2736   16.5517 C   0  0  0  0  0  0  0  0  0  0  0  0
    3.8816   -9.1166   17.2493 C   0  0  0  0  0  0  0  0  0  0  0  0
   10.1297   -1.6575   23.2324 C   0  0  0  0  0  0  0  0  0  0  0  0
    9.4684   -1.6929   26.7263 F   0  0  0  0  0  0  0  0  0  0  0  0
    7.7963   -7.7906   17.9837 C   0  0  0  0  0  0  0  0  0  0  0  0
   10.5884   -3.0725   16.7902 O   0  0  0  0  0  0  0  0  0  0  0  0
   10.4323   -5.3494   20.3516 C   0  0  0  0  0  0  0  0  0  0  0  0
    7.1156   -7.5454   16.8218 C   0  0  0  0  0  0  0  0  0  0  0  0
   10.3885   -4.4388   19.2773 C   0  0  0  0  0  0  0  0  0  0  0  0
    4.5160   -9.3822   15.0841 C   0  0  0  0  0  0  0  0  0  0  0  0
  1  3  4  0
  1 24  4  0
  2  6  4  0
  2 15  4  0
  3  5  4  0
  3  6  4  0
  4 21  4  0
  4 29  4  0
  5 15  4  0
  5 28  1  0
  6 16  4  0
  7 18  4  0
  7 26  4  0
  8 18  1  0
  8 19  4  0
  8 22  4  0
  9 12  4  0
  9 19  4  0
 10 12  4  0
 10 22  4  0
 11 20  4  0
 11 21  4  0
 12 23  1  0
 13 20  4  0
 13 29  4  0
 14 17  4  0
 14 28  4  0
 15 25  2  0
 16 27  4  0
 17 18  4  0
 20 27  1  0
 24 27  4  0
 26 28  4  0
M  END
$$$$

 Created by Python create_sdf_string function

 29 33  0  0  0  0  0  0  0  0999 V2000
    8.8270   -7.0288   18.4251 C   0  0  0  0  0  0  0  0  0  0  0  0
    9.1576   -4.6236   15.8860 O   0  0  0  0  0  0  0  0  0  0  0  0
    9.1509   -5.9108   17.7177 C   0  0  0  0  0  0  0  0  0  0  0  0
    3.6373   -9.5349   16.0582 N   0  0  0  0  0  0  0  0  0  0  0  0
    9.9275   -4.8001   18.0438 N   0  0  0  0  0  0  0  0  0  0  0  0
    8.5908   -5.7425   16.4412 C   0  0  0  0  0  0  0  0  0  0  0  0
   10.5993   -4.8981   21.6068 C   0  0  0  0  0  0  0  0  0  0  0  0
   10.4258   -3.0106   23.0998 C   0  0  0  0  0  0  0  0  0  0  0  0
   10.2148   -3.4364   25.4200 C   0  0  0  0  0  0  0  0  0  0  0  0
    9.7853   -1.1840   24.4927 C   0  0  0  0  0  0  0  0  0  0  0  0
    5.0276   -8.5227   17.5352 C   0  0  0  0  0  0  0  0  0  0  0  0
    9.8187   -2.0895   25.5800 C   0  0  0  0  0  0  0  0  0  0  0  0
    5.6473   -8.7216   15.3158 C   0  0  0  0  0  0  0  0  0  0  0  0
   10.7581   -3.1233   19.4720 N   0  0  0  0  0  0  0  0  0  0  0  0
    9.9571   -4.0573   16.8866 C   0  0  0  0  0  0  0  0  0  0  0  0
    7.6213   -6.5618   16.0087 C   0  0  0  0  0  0  0  0  0  0  0  0
   10.8583   -2.6527   20.7222 C   0  0  0  0  0  0  0  0  0  0  0  0
   10.6412   -3.5089   21.7936 C   0  0  0  0  0  0  0  0  0  0  0  0
   10.4972   -3.8968   24.1589 C   0  0  0  0  0  0  0  0  0  0  0  0
    5.9260   -8.2736   16.5517 C   0  0  0  0  0  0  0  0  0  0  0  0
    3.8816   -9.1166   17.2493 C   0  0  0  0  0  0  0  0  0  0  0  0
   10.1297   -1.6575   23.2324 C   0  0  0  0  0  0  0  0  0  0  0  0
    9.4684   -1.6929   26.7263 F   0  0  0  0  0  0  0  0  0  0  0  0
    7.7963   -7.7906   17.9837 C   0  0  0  0  0  0  0  0  0  0  0  0
   10.5884   -3.0725   16.7902 O   0  0  0  0  0  0  0  0  0  0  0  0
   10.4323   -5.3494   20.3516 C   0  0  0  0  0  0  0  0  0  0  0  0
    7.1156   -7.5454   16.8218 C   0  0  0  0  0  0  0  0  0  0  0  0
   10.3885   -4.4388   19.2773 C   0  0  0  0  0  0  0  0  0  0  0  0
    4.5160   -9.3822   15.0841 C   0  0  0  0  0  0  0  0  0  0  0  0
  1  3  4  0
  1 24  4  0
  2  6  4  0
  2 15  4  0
  3  5  4  0
  3  6  4  0
  4 21  4  0
  4 29  4  0
  5 15  4  0
  5 28  1  0
  6 16  4  0
  7 18  4  0
  7 26  4  0
  8 18  1  0
  8 19  4  0
  8 22  4  0
  9 12  4  0
  9 19  4  0
 10 12  4  0
 10 22  4  0
 11 20  4  0
 11 21  4  0
 12 23  1  0
 13 20  4  0
 13 29  4  0
 14 17  4  0
 14 28  4  0
 15 25  2  0
 16 27  4  0
 17 18  4  0
 20 27  1  0
 24 27  4  0
 26 28  4  0
M  END
$$$$

 Created by Python create_sdf_string function

 29 33  0  0  0  0  0  0  0  0999 V2000
    8.8270   -7.0288   18.4251 C   0  0  0  0  0  0  0  0  0  0  0  0
    9.1576   -4.6236   15.8860 O   0  0  0  0  0  0  0  0  0  0  0  0
    9.1509   -5.9108   17.7177 C   0  0  0  0  0  0  0  0  0  0  0  0
    3.6373   -9.5349   16.0582 N   0  0  0  0  0  0  0  0  0  0  0  0
    9.9275   -4.8001   18.0438 N   0  0  0  0  0  0  0  0  0  0  0  0
    8.5908   -5.7425   16.4412 C   0  0  0  0  0  0  0  0  0  0  0  0
   10.5993   -4.8981   21.6068 C   0  0  0  0  0  0  0  0  0  0  0  0
   10.4258   -3.0106   23.0998 C   0  0  0  0  0  0  0  0  0  0  0  0
   10.2148   -3.4364   25.4200 C   0  0  0  0  0  0  0  0  0  0  0  0
    9.7853   -1.1840   24.4927 C   0  0  0  0  0  0  0  0  0  0  0  0
    5.0276   -8.5227   17.5352 C   0  0  0  0  0  0  0  0  0  0  0  0
    9.8187   -2.0895   25.5800 C   0  0  0  0  0  0  0  0  0  0  0  0
    5.6473   -8.7216   15.3158 C   0  0  0  0  0  0  0  0  0  0  0  0
   10.7581   -3.1233   19.4720 N   0  0  0  0  0  0  0  0  0  0  0  0
    9.9571   -4.0573   16.8866 C   0  0  0  0  0  0  0  0  0  0  0  0
    7.6213   -6.5618   16.0087 C   0  0  0  0  0  0  0  0  0  0  0  0
   10.8583   -2.6527   20.7222 C   0  0  0  0  0  0  0  0  0  0  0  0
   10.6412   -3.5089   21.7936 C   0  0  0  0  0  0  0  0  0  0  0  0
   10.4972   -3.8968   24.1589 C   0  0  0  0  0  0  0  0  0  0  0  0
    5.9260   -8.2736   16.5517 C   0  0  0  0  0  0  0  0  0  0  0  0
    3.8816   -9.1166   17.2493 C   0  0  0  0  0  0  0  0  0  0  0  0
   10.1297   -1.6575   23.2324 C   0  0  0  0  0  0  0  0  0  0  0  0
    9.4684   -1.6929   26.7263 F   0  0  0  0  0  0  0  0  0  0  0  0
    7.7963   -7.7906   17.9837 C   0  0  0  0  0  0  0  0  0  0  0  0
   10.5884   -3.0725   16.7902 O   0  0  0  0  0  0  0  0  0  0  0  0
   10.4323   -5.3494   20.3516 C   0  0  0  0  0  0  0  0  0  0  0  0
    7.1156   -7.5454   16.8218 C   0  0  0  0  0  0  0  0  0  0  0  0
   10.3885   -4.4388   19.2773 C   0  0  0  0  0  0  0  0  0  0  0  0
    4.5160   -9.3822   15.0841 C   0  0  0  0  0  0  0  0  0  0  0  0
  1  3  4  0
  1 24  4  0
  2  6  4  0
  2 15  4  0
  3  5  4  0
  3  6  4  0
  4 21  4  0
  4 29  4  0
  5 15  4  0
  5 28  1  0
  6 16  4  0
  7 18  4  0
  7 26  4  0
  8 18  1  0
  8 19  4  0
  8 22  4  0
  9 12  4  0
  9 19  4  0
 10 12  4  0
 10 22  4  0
 11 20  4  0
 11 21  4  0
 12 23  1  0
 13 20  4  0
 13 29  4  0
 14 17  4  0
 14 28  4  0
 15 25  2  0
 16 27  4  0
 17 18  4  0
 20 27  1  0
 24 27  4  0
 26 28  4  0
M  END
$$$$

 Created by Python create_sdf_string function

 29 33  0  0  0  0  0  0  0  0999 V2000
    8.8270   -7.0288   18.4251 C   0  0  0  0  0  0  0  0  0  0  0  0
    9.1576   -4.6236   15.8860 O   0  0  0  0  0  0  0  0  0  0  0  0
    9.1509   -5.9108   17.7177 C   0  0  0  0  0  0  0  0  0  0  0  0
    3.6373   -9.5349   16.0582 N   0  0  0  0  0  0  0  0  0  0  0  0
    9.9275   -4.8001   18.0438 N   0  0  0  0  0  0  0  0  0  0  0  0
    8.5908   -5.7425   16.4412 C   0  0  0  0  0  0  0  0  0  0  0  0
   10.5993   -4.8981   21.6068 C   0  0  0  0  0  0  0  0  0  0  0  0
   10.4258   -3.0106   23.0998 C   0  0  0  0  0  0  0  0  0  0  0  0
   10.2148   -3.4364   25.4200 C   0  0  0  0  0  0  0  0  0  0  0  0
    9.7853   -1.1840   24.4927 C   0  0  0  0  0  0  0  0  0  0  0  0
    5.0276   -8.5227   17.5352 C   0  0  0  0  0  0  0  0  0  0  0  0
    9.8187   -2.0895   25.5800 C   0  0  0  0  0  0  0  0  0  0  0  0
    5.6473   -8.7216   15.3158 C   0  0  0  0  0  0  0  0  0  0  0  0
   10.7581   -3.1233   19.4720 N   0  0  0  0  0  0  0  0  0  0  0  0
    9.9571   -4.0573   16.8866 C   0  0  0  0  0  0  0  0  0  0  0  0
    7.6213   -6.5618   16.0087 C   0  0  0  0  0  0  0  0  0  0  0  0
   10.8583   -2.6527   20.7222 C   0  0  0  0  0  0  0  0  0  0  0  0
   10.6412   -3.5089   21.7936 C   0  0  0  0  0  0  0  0  0  0  0  0
   10.4972   -3.8968   24.1589 C   0  0  0  0  0  0  0  0  0  0  0  0
    5.9260   -8.2736   16.5517 C   0  0  0  0  0  0  0  0  0  0  0  0
    3.8816   -9.1166   17.2493 C   0  0  0  0  0  0  0  0  0  0  0  0
   10.1297   -1.6575   23.2324 C   0  0  0  0  0  0  0  0  0  0  0  0
    9.4684   -1.6929   26.7263 F   0  0  0  0  0  0  0  0  0  0  0  0
    7.7963   -7.7906   17.9837 C   0  0  0  0  0  0  0  0  0  0  0  0
   10.5884   -3.0725   16.7902 O   0  0  0  0  0  0  0  0  0  0  0  0
   10.4323   -5.3494   20.3516 C   0  0  0  0  0  0  0  0  0  0  0  0
    7.1156   -7.5454   16.8218 C   0  0  0  0  0  0  0  0  0  0  0  0
   10.3885   -4.4388   19.2773 C   0  0  0  0  0  0  0  0  0  0  0  0
    4.5160   -9.3822   15.0841 C   0  0  0  0  0  0  0  0  0  0  0  0
  1  3  4  0
  1 24  4  0
  2  6  4  0
  2 15  4  0
  3  5  4  0
  3  6  4  0
  4 21  4  0
  4 29  4  0
  5 15  4  0
  5 28  1  0
  6 16  4  0
  7 18  4  0
  7 26  4  0
  8 18  1  0
  8 19  4  0
  8 22  4  0
  9 12  4  0
  9 19  4  0
 10 12  4  0
 10 22  4  0
 11 20  4  0
 11 21  4  0
 12 23  1  0
 13 20  4  0
 13 29  4  0
 14 17  4  0
 14 28  4  0
 15 25  2  0
 16 27  4  0
 17 18  4  0
 20 27  1  0
 24 27  4  0
 26 28  4  0
M  END
$$$$

 Created by Python create_sdf_string function

 29 33  0  0  0  0  0  0  0  0999 V2000
    8.8270   -7.0288   18.4251 C   0  0  0  0  0  0  0  0  0  0  0  0
    9.1576   -4.6236   15.8860 O   0  0  0  0  0  0  0  0  0  0  0  0
    9.1509   -5.9108   17.7177 C   0  0  0  0  0  0  0  0  0  0  0  0
    3.6373   -9.5349   16.0582 N   0  0  0  0  0  0  0  0  0  0  0  0
    9.9275   -4.8001   18.0438 N   0  0  0  0  0  0  0  0  0  0  0  0
    8.5908   -5.7425   16.4412 C   0  0  0  0  0  0  0  0  0  0  0  0
   10.5993   -4.8981   21.6068 C   0  0  0  0  0  0  0  0  0  0  0  0
   10.4258   -3.0106   23.0998 C   0  0  0  0  0  0  0  0  0  0  0  0
   10.2148   -3.4364   25.4200 C   0  0  0  0  0  0  0  0  0  0  0  0
    9.7853   -1.1840   24.4927 C   0  0  0  0  0  0  0  0  0  0  0  0
    5.0276   -8.5227   17.5352 C   0  0  0  0  0  0  0  0  0  0  0  0
    9.8187   -2.0895   25.5800 C   0  0  0  0  0  0  0  0  0  0  0  0
    5.6473   -8.7216   15.3158 C   0  0  0  0  0  0  0  0  0  0  0  0
   10.7581   -3.1233   19.4720 N   0  0  0  0  0  0  0  0  0  0  0  0
    9.9571   -4.0573   16.8866 C   0  0  0  0  0  0  0  0  0  0  0  0
    7.6213   -6.5618   16.0087 C   0  0  0  0  0  0  0  0  0  0  0  0
   10.8583   -2.6527   20.7222 C   0  0  0  0  0  0  0  0  0  0  0  0
   10.6412   -3.5089   21.7936 C   0  0  0  0  0  0  0  0  0  0  0  0
   10.4972   -3.8968   24.1589 C   0  0  0  0  0  0  0  0  0  0  0  0
    5.9260   -8.2736   16.5517 C   0  0  0  0  0  0  0  0  0  0  0  0
    3.8816   -9.1166   17.2493 C   0  0  0  0  0  0  0  0  0  0  0  0
   10.1297   -1.6575   23.2324 C   0  0  0  0  0  0  0  0  0  0  0  0
    9.4684   -1.6929   26.7263 F   0  0  0  0  0  0  0  0  0  0  0  0
    7.7963   -7.7906   17.9837 C   0  0  0  0  0  0  0  0  0  0  0  0
   10.5884   -3.0725   16.7902 O   0  0  0  0  0  0  0  0  0  0  0  0
   10.4323   -5.3494   20.3516 C   0  0  0  0  0  0  0  0  0  0  0  0
    7.1156   -7.5454   16.8218 C   0  0  0  0  0  0  0  0  0  0  0  0
   10.3885   -4.4388   19.2773 C   0  0  0  0  0  0  0  0  0  0  0  0
    4.5160   -9.3822   15.0841 C   0  0  0  0  0  0  0  0  0  0  0  0
  1  3  4  0
  1 24  4  0
  2  6  4  0
  2 15  4  0
  3  5  4  0
  3  6  4  0
  4 21  4  0
  4 29  4  0
  5 15  4  0
  5 28  1  0
  6 16  4  0
  7 18  4  0
  7 26  4  0
  8 18  1  0
  8 19  4  0
  8 22  4  0
  9 12  4  0
  9 19  4  0
 10 12  4  0
 10 22  4  0
 11 20  4  0
 11 21  4  0
 12 23  1  0
 13 20  4  0
 13 29  4  0
 14 17  4  0
 14 28  4  0
 15 25  2  0
 16 27  4  0
 17 18  4  0
 20 27  1  0
 24 27  4  0
 26 28  4  0
M  END
$$$$

 Created by Python create_sdf_string function

 29 33  0  0  0  0  0  0  0  0999 V2000
    8.8270   -7.0288   18.4251 C   0  0  0  0  0  0  0  0  0  0  0  0
    9.1576   -4.6236   15.8860 O   0  0  0  0  0  0  0  0  0  0  0  0
    9.1509   -5.9108   17.7177 C   0  0  0  0  0  0  0  0  0  0  0  0
    3.6373   -9.5349   16.0582 N   0  0  0  0  0  0  0  0  0  0  0  0
    9.9275   -4.8001   18.0438 N   0  0  0  0  0  0  0  0  0  0  0  0
    8.5908   -5.7425   16.4412 C   0  0  0  0  0  0  0  0  0  0  0  0
   10.5993   -4.8981   21.6068 C   0  0  0  0  0  0  0  0  0  0  0  0
   10.4258   -3.0106   23.0998 C   0  0  0  0  0  0  0  0  0  0  0  0
   10.2148   -3.4364   25.4200 C   0  0  0  0  0  0  0  0  0  0  0  0
    9.7853   -1.1840   24.4927 C   0  0  0  0  0  0  0  0  0  0  0  0
    5.0276   -8.5227   17.5352 C   0  0  0  0  0  0  0  0  0  0  0  0
    9.8187   -2.0895   25.5800 C   0  0  0  0  0  0  0  0  0  0  0  0
    5.6473   -8.7216   15.3158 C   0  0  0  0  0  0  0  0  0  0  0  0
   10.7581   -3.1233   19.4720 N   0  0  0  0  0  0  0  0  0  0  0  0
    9.9571   -4.0573   16.8866 C   0  0  0  0  0  0  0  0  0  0  0  0
    7.6213   -6.5618   16.0087 C   0  0  0  0  0  0  0  0  0  0  0  0
   10.8583   -2.6527   20.7222 C   0  0  0  0  0  0  0  0  0  0  0  0
   10.6412   -3.5089   21.7936 C   0  0  0  0  0  0  0  0  0  0  0  0
   10.4972   -3.8968   24.1589 C   0  0  0  0  0  0  0  0  0  0  0  0
    5.9260   -8.2736   16.5517 C   0  0  0  0  0  0  0  0  0  0  0  0
    3.8816   -9.1166   17.2493 C   0  0  0  0  0  0  0  0  0  0  0  0
   10.1297   -1.6575   23.2324 C   0  0  0  0  0  0  0  0  0  0  0  0
    9.4684   -1.6929   26.7263 F   0  0  0  0  0  0  0  0  0  0  0  0
    7.7963   -7.7906   17.9837 C   0  0  0  0  0  0  0  0  0  0  0  0
   10.5884   -3.0725   16.7902 O   0  0  0  0  0  0  0  0  0  0  0  0
   10.4323   -5.3494   20.3516 C   0  0  0  0  0  0  0  0  0  0  0  0
    7.1156   -7.5454   16.8218 C   0  0  0  0  0  0  0  0  0  0  0  0
   10.3885   -4.4388   19.2773 C   0  0  0  0  0  0  0  0  0  0  0  0
    4.5160   -9.3822   15.0841 C   0  0  0  0  0  0  0  0  0  0  0  0
  1  3  4  0
  1 24  4  0
  2  6  4  0
  2 15  4  0
  3  5  4  0
  3  6  4  0
  4 21  4  0
  4 29  4  0
  5 15  4  0
  5 28  1  0
  6 16  4  0
  7 18  4  0
  7 26  4  0
  8 18  1  0
  8 19  4  0
  8 22  4  0
  9 12  4  0
  9 19  4  0
 10 12  4  0
 10 22  4  0
 11 20  4  0
 11 21  4  0
 12 23  1  0
 13 20  4  0
 13 29  4  0
 14 17  4  0
 14 28  4  0
 15 25  2  0
 16 27  4  0
 17 18  4  0
 20 27  1  0
 24 27  4  0
 26 28  4  0
M  END
$$$$

 Created by Python create_sdf_string function

 29 33  0  0  0  0  0  0  0  0999 V2000
    8.8270   -7.0288   18.4251 C   0  0  0  0  0  0  0  0  0  0  0  0
    9.1576   -4.6236   15.8860 O   0  0  0  0  0  0  0  0  0  0  0  0
    9.1509   -5.9108   17.7177 C   0  0  0  0  0  0  0  0  0  0  0  0
    3.6373   -9.5349   16.0582 N   0  0  0  0  0  0  0  0  0  0  0  0
    9.9275   -4.8001   18.0438 N   0  0  0  0  0  0  0  0  0  0  0  0
    8.5908   -5.7425   16.4412 C   0  0  0  0  0  0  0  0  0  0  0  0
   10.5993   -4.8981   21.6068 C   0  0  0  0  0  0  0  0  0  0  0  0
   10.4258   -3.0106   23.0998 C   0  0  0  0  0  0  0  0  0  0  0  0
   10.2148   -3.4364   25.4200 C   0  0  0  0  0  0  0  0  0  0  0  0
    9.7853   -1.1840   24.4927 C   0  0  0  0  0  0  0  0  0  0  0  0
    5.0276   -8.5227   17.5352 C   0  0  0  0  0  0  0  0  0  0  0  0
    9.8187   -2.0895   25.5800 C   0  0  0  0  0  0  0  0  0  0  0  0
    5.6473   -8.7216   15.3158 C   0  0  0  0  0  0  0  0  0  0  0  0
   10.7581   -3.1233   19.4720 N   0  0  0  0  0  0  0  0  0  0  0  0
    9.9571   -4.0573   16.8866 C   0  0  0  0  0  0  0  0  0  0  0  0
    7.6213   -6.5618   16.0087 C   0  0  0  0  0  0  0  0  0  0  0  0
   10.8583   -2.6527   20.7222 C   0  0  0  0  0  0  0  0  0  0  0  0
   10.6412   -3.5089   21.7936 C   0  0  0  0  0  0  0  0  0  0  0  0
   10.4972   -3.8968   24.1589 C   0  0  0  0  0  0  0  0  0  0  0  0
    5.9260   -8.2736   16.5517 C   0  0  0  0  0  0  0  0  0  0  0  0
    3.8816   -9.1166   17.2493 C   0  0  0  0  0  0  0  0  0  0  0  0
   10.1297   -1.6575   23.2324 C   0  0  0  0  0  0  0  0  0  0  0  0
    9.4684   -1.6929   26.7263 F   0  0  0  0  0  0  0  0  0  0  0  0
    7.7963   -7.7906   17.9837 C   0  0  0  0  0  0  0  0  0  0  0  0
   10.5884   -3.0725   16.7902 O   0  0  0  0  0  0  0  0  0  0  0  0
   10.4323   -5.3494   20.3516 C   0  0  0  0  0  0  0  0  0  0  0  0
    7.1156   -7.5454   16.8218 C   0  0  0  0  0  0  0  0  0  0  0  0
   10.3885   -4.4388   19.2773 C   0  0  0  0  0  0  0  0  0  0  0  0
    4.5160   -9.3822   15.0841 C   0  0  0  0  0  0  0  0  0  0  0  0
  1  3  4  0
  1 24  4  0
  2  6  4  0
  2 15  4  0
  3  5  4  0
  3  6  4  0
  4 21  4  0
  4 29  4  0
  5 15  4  0
  5 28  1  0
  6 16  4  0
  7 18  4  0
  7 26  4  0
  8 18  1  0
  8 19  4  0
  8 22  4  0
  9 12  4  0
  9 19  4  0
 10 12  4  0
 10 22  4  0
 11 20  4  0
 11 21  4  0
 12 23  1  0
 13 20  4  0
 13 29  4  0
 14 17  4  0
 14 28  4  0
 15 25  2  0
 16 27  4  0
 17 18  4  0
 20 27  1  0
 24 27  4  0
 26 28  4  0
M  END
$$$$

 Created by Python create_sdf_string function

 29 33  0  0  0  0  0  0  0  0999 V2000
    8.8270   -7.0288   18.4251 C   0  0  0  0  0  0  0  0  0  0  0  0
    9.1576   -4.6236   15.8860 O   0  0  0  0  0  0  0  0  0  0  0  0
    9.1509   -5.9108   17.7177 C   0  0  0  0  0  0  0  0  0  0  0  0
    3.6373   -9.5349   16.0582 N   0  0  0  0  0  0  0  0  0  0  0  0
    9.9275   -4.8001   18.0438 N   0  0  0  0  0  0  0  0  0  0  0  0
    8.5908   -5.7425   16.4412 C   0  0  0  0  0  0  0  0  0  0  0  0
   10.5993   -4.8981   21.6068 C   0  0  0  0  0  0  0  0  0  0  0  0
   10.4258   -3.0106   23.0998 C   0  0  0  0  0  0  0  0  0  0  0  0
   10.2148   -3.4364   25.4200 C   0  0  0  0  0  0  0  0  0  0  0  0
    9.7853   -1.1840   24.4927 C   0  0  0  0  0  0  0  0  0  0  0  0
    5.0276   -8.5227   17.5352 C   0  0  0  0  0  0  0  0  0  0  0  0
    9.8187   -2.0895   25.5800 C   0  0  0  0  0  0  0  0  0  0  0  0
    5.6473   -8.7216   15.3158 C   0  0  0  0  0  0  0  0  0  0  0  0
   10.7581   -3.1233   19.4720 N   0  0  0  0  0  0  0  0  0  0  0  0
    9.9571   -4.0573   16.8866 C   0  0  0  0  0  0  0  0  0  0  0  0
    7.6213   -6.5618   16.0087 C   0  0  0  0  0  0  0  0  0  0  0  0
   10.8583   -2.6527   20.7222 C   0  0  0  0  0  0  0  0  0  0  0  0
   10.6412   -3.5089   21.7936 C   0  0  0  0  0  0  0  0  0  0  0  0
   10.4972   -3.8968   24.1589 C   0  0  0  0  0  0  0  0  0  0  0  0
    5.9260   -8.2736   16.5517 C   0  0  0  0  0  0  0  0  0  0  0  0
    3.8816   -9.1166   17.2493 C   0  0  0  0  0  0  0  0  0  0  0  0
   10.1297   -1.6575   23.2324 C   0  0  0  0  0  0  0  0  0  0  0  0
    9.4684   -1.6929   26.7263 F   0  0  0  0  0  0  0  0  0  0  0  0
    7.7963   -7.7906   17.9837 C   0  0  0  0  0  0  0  0  0  0  0  0
   10.5884   -3.0725   16.7902 O   0  0  0  0  0  0  0  0  0  0  0  0
   10.4323   -5.3494   20.3516 C   0  0  0  0  0  0  0  0  0  0  0  0
    7.1156   -7.5454   16.8218 C   0  0  0  0  0  0  0  0  0  0  0  0
   10.3885   -4.4388   19.2773 C   0  0  0  0  0  0  0  0  0  0  0  0
    4.5160   -9.3822   15.0841 C   0  0  0  0  0  0  0  0  0  0  0  0
  1  3  4  0
  1 24  4  0
  2  6  4  0
  2 15  4  0
  3  5  4  0
  3  6  4  0
  4 21  4  0
  4 29  4  0
  5 15  4  0
  5 28  1  0
  6 16  4  0
  7 18  4  0
  7 26  4  0
  8 18  1  0
  8 19  4  0
  8 22  4  0
  9 12  4  0
  9 19  4  0
 10 12  4  0
 10 22  4  0
 11 20  4  0
 11 21  4  0
 12 23  1  0
 13 20  4  0
 13 29  4  0
 14 17  4  0
 14 28  4  0
 15 25  2  0
 16 27  4  0
 17 18  4  0
 20 27  1  0
 24 27  4  0
 26 28  4  0
M  END
$$$$

 Created by Python create_sdf_string function

 29 33  0  0  0  0  0  0  0  0999 V2000
    8.8270   -7.0288   18.4251 C   0  0  0  0  0  0  0  0  0  0  0  0
    9.1576   -4.6236   15.8860 O   0  0  0  0  0  0  0  0  0  0  0  0
    9.1509   -5.9108   17.7177 C   0  0  0  0  0  0  0  0  0  0  0  0
    3.6373   -9.5349   16.0582 N   0  0  0  0  0  0  0  0  0  0  0  0
    9.9275   -4.8001   18.0438 N   0  0  0  0  0  0  0  0  0  0  0  0
    8.5908   -5.7425   16.4412 C   0  0  0  0  0  0  0  0  0  0  0  0
   10.5993   -4.8981   21.6068 C   0  0  0  0  0  0  0  0  0  0  0  0
   10.4258   -3.0106   23.0998 C   0  0  0  0  0  0  0  0  0  0  0  0
   10.2148   -3.4364   25.4200 C   0  0  0  0  0  0  0  0  0  0  0  0
    9.7853   -1.1840   24.4927 C   0  0  0  0  0  0  0  0  0  0  0  0
    5.0276   -8.5227   17.5352 C   0  0  0  0  0  0  0  0  0  0  0  0
    9.8187   -2.0895   25.5800 C   0  0  0  0  0  0  0  0  0  0  0  0
    5.6473   -8.7216   15.3158 C   0  0  0  0  0  0  0  0  0  0  0  0
   10.7581   -3.1233   19.4720 N   0  0  0  0  0  0  0  0  0  0  0  0
    9.9571   -4.0573   16.8866 C   0  0  0  0  0  0  0  0  0  0  0  0
    7.6213   -6.5618   16.0087 C   0  0  0  0  0  0  0  0  0  0  0  0
   10.8583   -2.6527   20.7222 C   0  0  0  0  0  0  0  0  0  0  0  0
   10.6412   -3.5089   21.7936 C   0  0  0  0  0  0  0  0  0  0  0  0
   10.4972   -3.8968   24.1589 C   0  0  0  0  0  0  0  0  0  0  0  0
    5.9260   -8.2736   16.5517 C   0  0  0  0  0  0  0  0  0  0  0  0
    3.8816   -9.1166   17.2493 C   0  0  0  0  0  0  0  0  0  0  0  0
   10.1297   -1.6575   23.2324 C   0  0  0  0  0  0  0  0  0  0  0  0
    9.4684   -1.6929   26.7263 F   0  0  0  0  0  0  0  0  0  0  0  0
    7.7963   -7.7906   17.9837 C   0  0  0  0  0  0  0  0  0  0  0  0
   10.5884   -3.0725   16.7902 O   0  0  0  0  0  0  0  0  0  0  0  0
   10.4323   -5.3494   20.3516 C   0  0  0  0  0  0  0  0  0  0  0  0
    7.1156   -7.5454   16.8218 C   0  0  0  0  0  0  0  0  0  0  0  0
   10.3885   -4.4388   19.2773 C   0  0  0  0  0  0  0  0  0  0  0  0
    4.5160   -9.3822   15.0841 C   0  0  0  0  0  0  0  0  0  0  0  0
  1  3  4  0
  1 24  4  0
  2  6  4  0
  2 15  4  0
  3  5  4  0
  3  6  4  0
  4 21  4  0
  4 29  4  0
  5 15  4  0
  5 28  1  0
  6 16  4  0
  7 18  4  0
  7 26  4  0
  8 18  1  0
  8 19  4  0
  8 22  4  0
  9 12  4  0
  9 19  4  0
 10 12  4  0
 10 22  4  0
 11 20  4  0
 11 21  4  0
 12 23  1  0
 13 20  4  0
 13 29  4  0
 14 17  4  0
 14 28  4  0
 15 25  2  0
 16 27  4  0
 17 18  4  0
 20 27  1  0
 24 27  4  0
 26 28  4  0
M  END
$$$$

 Created by Python create_sdf_string function

 29 33  0  0  0  0  0  0  0  0999 V2000
    8.8270   -7.0288   18.4251 C   0  0  0  0  0  0  0  0  0  0  0  0
    9.1576   -4.6236   15.8860 O   0  0  0  0  0  0  0  0  0  0  0  0
    9.1509   -5.9108   17.7177 C   0  0  0  0  0  0  0  0  0  0  0  0
    3.6373   -9.5349   16.0582 N   0  0  0  0  0  0  0  0  0  0  0  0
    9.9275   -4.8001   18.0438 N   0  0  0  0  0  0  0  0  0  0  0  0
    8.5908   -5.7425   16.4412 C   0  0  0  0  0  0  0  0  0  0  0  0
   10.5993   -4.8981   21.6068 C   0  0  0  0  0  0  0  0  0  0  0  0
   10.4258   -3.0106   23.0998 C   0  0  0  0  0  0  0  0  0  0  0  0
   10.2148   -3.4364   25.4200 C   0  0  0  0  0  0  0  0  0  0  0  0
    9.7853   -1.1840   24.4927 C   0  0  0  0  0  0  0  0  0  0  0  0
    5.0276   -8.5227   17.5352 C   0  0  0  0  0  0  0  0  0  0  0  0
    9.8187   -2.0895   25.5800 C   0  0  0  0  0  0  0  0  0  0  0  0
    5.6473   -8.7216   15.3158 C   0  0  0  0  0  0  0  0  0  0  0  0
   10.7581   -3.1233   19.4720 N   0  0  0  0  0  0  0  0  0  0  0  0
    9.9571   -4.0573   16.8866 C   0  0  0  0  0  0  0  0  0  0  0  0
    7.6213   -6.5618   16.0087 C   0  0  0  0  0  0  0  0  0  0  0  0
   10.8583   -2.6527   20.7222 C   0  0  0  0  0  0  0  0  0  0  0  0
   10.6412   -3.5089   21.7936 C   0  0  0  0  0  0  0  0  0  0  0  0
   10.4972   -3.8968   24.1589 C   0  0  0  0  0  0  0  0  0  0  0  0
    5.9260   -8.2736   16.5517 C   0  0  0  0  0  0  0  0  0  0  0  0
    3.8816   -9.1166   17.2493 C   0  0  0  0  0  0  0  0  0  0  0  0
   10.1297   -1.6575   23.2324 C   0  0  0  0  0  0  0  0  0  0  0  0
    9.4684   -1.6929   26.7263 F   0  0  0  0  0  0  0  0  0  0  0  0
    7.7963   -7.7906   17.9837 C   0  0  0  0  0  0  0  0  0  0  0  0
   10.5884   -3.0725   16.7902 O   0  0  0  0  0  0  0  0  0  0  0  0
   10.4323   -5.3494   20.3516 C   0  0  0  0  0  0  0  0  0  0  0  0
    7.1156   -7.5454   16.8218 C   0  0  0  0  0  0  0  0  0  0  0  0
   10.3885   -4.4388   19.2773 C   0  0  0  0  0  0  0  0  0  0  0  0
    4.5160   -9.3822   15.0841 C   0  0  0  0  0  0  0  0  0  0  0  0
  1  3  4  0
  1 24  4  0
  2  6  4  0
  2 15  4  0
  3  5  4  0
  3  6  4  0
  4 21  4  0
  4 29  4  0
  5 15  4  0
  5 28  1  0
  6 16  4  0
  7 18  4  0
  7 26  4  0
  8 18  1  0
  8 19  4  0
  8 22  4  0
  9 12  4  0
  9 19  4  0
 10 12  4  0
 10 22  4  0
 11 20  4  0
 11 21  4  0
 12 23  1  0
 13 20  4  0
 13 29  4  0
 14 17  4  0
 14 28  4  0
 15 25  2  0
 16 27  4  0
 17 18  4  0
 20 27  1  0
 24 27  4  0
 26 28  4  0
M  END
$$$$

 Created by Python create_sdf_string function

 29 33  0  0  0  0  0  0  0  0999 V2000
    8.8270   -7.0288   18.4251 C   0  0  0  0  0  0  0  0  0  0  0  0
    9.1576   -4.6236   15.8860 O   0  0  0  0  0  0  0  0  0  0  0  0
    9.1509   -5.9108   17.7177 C   0  0  0  0  0  0  0  0  0  0  0  0
    3.6373   -9.5349   16.0582 N   0  0  0  0  0  0  0  0  0  0  0  0
    9.9275   -4.8001   18.0438 N   0  0  0  0  0  0  0  0  0  0  0  0
    8.5908   -5.7425   16.4412 C   0  0  0  0  0  0  0  0  0  0  0  0
   10.5993   -4.8981   21.6068 C   0  0  0  0  0  0  0  0  0  0  0  0
   10.4258   -3.0106   23.0998 C   0  0  0  0  0  0  0  0  0  0  0  0
   10.2148   -3.4364   25.4200 C   0  0  0  0  0  0  0  0  0  0  0  0
    9.7853   -1.1840   24.4927 C   0  0  0  0  0  0  0  0  0  0  0  0
    5.0276   -8.5227   17.5352 C   0  0  0  0  0  0  0  0  0  0  0  0
    9.8187   -2.0895   25.5800 C   0  0  0  0  0  0  0  0  0  0  0  0
    5.6473   -8.7216   15.3158 C   0  0  0  0  0  0  0  0  0  0  0  0
   10.7581   -3.1233   19.4720 N   0  0  0  0  0  0  0  0  0  0  0  0
    9.9571   -4.0573   16.8866 C   0  0  0  0  0  0  0  0  0  0  0  0
    7.6213   -6.5618   16.0087 C   0  0  0  0  0  0  0  0  0  0  0  0
   10.8583   -2.6527   20.7222 C   0  0  0  0  0  0  0  0  0  0  0  0
   10.6412   -3.5089   21.7936 C   0  0  0  0  0  0  0  0  0  0  0  0
   10.4972   -3.8968   24.1589 C   0  0  0  0  0  0  0  0  0  0  0  0
    5.9260   -8.2736   16.5517 C   0  0  0  0  0  0  0  0  0  0  0  0
    3.8816   -9.1166   17.2493 C   0  0  0  0  0  0  0  0  0  0  0  0
   10.1297   -1.6575   23.2324 C   0  0  0  0  0  0  0  0  0  0  0  0
    9.4684   -1.6929   26.7263 F   0  0  0  0  0  0  0  0  0  0  0  0
    7.7963   -7.7906   17.9837 C   0  0  0  0  0  0  0  0  0  0  0  0
   10.5884   -3.0725   16.7902 O   0  0  0  0  0  0  0  0  0  0  0  0
   10.4323   -5.3494   20.3516 C   0  0  0  0  0  0  0  0  0  0  0  0
    7.1156   -7.5454   16.8218 C   0  0  0  0  0  0  0  0  0  0  0  0
   10.3885   -4.4388   19.2773 C   0  0  0  0  0  0  0  0  0  0  0  0
    4.5160   -9.3822   15.0841 C   0  0  0  0  0  0  0  0  0  0  0  0
  1  3  4  0
  1 24  4  0
  2  6  4  0
  2 15  4  0
  3  5  4  0
  3  6  4  0
  4 21  4  0
  4 29  4  0
  5 15  4  0
  5 28  1  0
  6 16  4  0
  7 18  4  0
  7 26  4  0
  8 18  1  0
  8 19  4  0
  8 22  4  0
  9 12  4  0
  9 19  4  0
 10 12  4  0
 10 22  4  0
 11 20  4  0
 11 21  4  0
 12 23  1  0
 13 20  4  0
 13 29  4  0
 14 17  4  0
 14 28  4  0
 15 25  2  0
 16 27  4  0
 17 18  4  0
 20 27  1  0
 24 27  4  0
 26 28  4  0
M  END
$$$$

 Created by Python create_sdf_string function

 29 33  0  0  0  0  0  0  0  0999 V2000
    8.8270   -7.0288   18.4251 C   0  0  0  0  0  0  0  0  0  0  0  0
    9.1576   -4.6236   15.8860 O   0  0  0  0  0  0  0  0  0  0  0  0
    9.1509   -5.9108   17.7177 C   0  0  0  0  0  0  0  0  0  0  0  0
    3.6373   -9.5349   16.0582 N   0  0  0  0  0  0  0  0  0  0  0  0
    9.9275   -4.8001   18.0438 N   0  0  0  0  0  0  0  0  0  0  0  0
    8.5908   -5.7425   16.4412 C   0  0  0  0  0  0  0  0  0  0  0  0
   10.5993   -4.8981   21.6068 C   0  0  0  0  0  0  0  0  0  0  0  0
   10.4258   -3.0106   23.0998 C   0  0  0  0  0  0  0  0  0  0  0  0
   10.2148   -3.4364   25.4200 C   0  0  0  0  0  0  0  0  0  0  0  0
    9.7853   -1.1840   24.4927 C   0  0  0  0  0  0  0  0  0  0  0  0
    5.0276   -8.5227   17.5352 C   0  0  0  0  0  0  0  0  0  0  0  0
    9.8187   -2.0895   25.5800 C   0  0  0  0  0  0  0  0  0  0  0  0
    5.6473   -8.7216   15.3158 C   0  0  0  0  0  0  0  0  0  0  0  0
   10.7581   -3.1233   19.4720 N   0  0  0  0  0  0  0  0  0  0  0  0
    9.9571   -4.0573   16.8866 C   0  0  0  0  0  0  0  0  0  0  0  0
    7.6213   -6.5618   16.0087 C   0  0  0  0  0  0  0  0  0  0  0  0
   10.8583   -2.6527   20.7222 C   0  0  0  0  0  0  0  0  0  0  0  0
   10.6412   -3.5089   21.7936 C   0  0  0  0  0  0  0  0  0  0  0  0
   10.4972   -3.8968   24.1589 C   0  0  0  0  0  0  0  0  0  0  0  0
    5.9260   -8.2736   16.5517 C   0  0  0  0  0  0  0  0  0  0  0  0
    3.8816   -9.1166   17.2493 C   0  0  0  0  0  0  0  0  0  0  0  0
   10.1297   -1.6575   23.2324 C   0  0  0  0  0  0  0  0  0  0  0  0
    9.4684   -1.6929   26.7263 F   0  0  0  0  0  0  0  0  0  0  0  0
    7.7963   -7.7906   17.9837 C   0  0  0  0  0  0  0  0  0  0  0  0
   10.5884   -3.0725   16.7902 O   0  0  0  0  0  0  0  0  0  0  0  0
   10.4323   -5.3494   20.3516 C   0  0  0  0  0  0  0  0  0  0  0  0
    7.1156   -7.5454   16.8218 C   0  0  0  0  0  0  0  0  0  0  0  0
   10.3885   -4.4388   19.2773 C   0  0  0  0  0  0  0  0  0  0  0  0
    4.5160   -9.3822   15.0841 C   0  0  0  0  0  0  0  0  0  0  0  0
  1  3  4  0
  1 24  4  0
  2  6  4  0
  2 15  4  0
  3  5  4  0
  3  6  4  0
  4 21  4  0
  4 29  4  0
  5 15  4  0
  5 28  1  0
  6 16  4  0
  7 18  4  0
  7 26  4  0
  8 18  1  0
  8 19  4  0
  8 22  4  0
  9 12  4  0
  9 19  4  0
 10 12  4  0
 10 22  4  0
 11 20  4  0
 11 21  4  0
 12 23  1  0
 13 20  4  0
 13 29  4  0
 14 17  4  0
 14 28  4  0
 15 25  2  0
 16 27  4  0
 17 18  4  0
 20 27  1  0
 24 27  4  0
 26 28  4  0
M  END
$$$$

 Created by Python create_sdf_string function

 29 33  0  0  0  0  0  0  0  0999 V2000
    8.8270   -7.0288   18.4251 C   0  0  0  0  0  0  0  0  0  0  0  0
    9.1576   -4.6236   15.8860 O   0  0  0  0  0  0  0  0  0  0  0  0
    9.1509   -5.9108   17.7177 C   0  0  0  0  0  0  0  0  0  0  0  0
    3.6373   -9.5349   16.0582 N   0  0  0  0  0  0  0  0  0  0  0  0
    9.9275   -4.8001   18.0438 N   0  0  0  0  0  0  0  0  0  0  0  0
    8.5908   -5.7425   16.4412 C   0  0  0  0  0  0  0  0  0  0  0  0
   10.5993   -4.8981   21.6068 C   0  0  0  0  0  0  0  0  0  0  0  0
   10.4258   -3.0106   23.0998 C   0  0  0  0  0  0  0  0  0  0  0  0
   10.2148   -3.4364   25.4200 C   0  0  0  0  0  0  0  0  0  0  0  0
    9.7853   -1.1840   24.4927 C   0  0  0  0  0  0  0  0  0  0  0  0
    5.0276   -8.5227   17.5352 C   0  0  0  0  0  0  0  0  0  0  0  0
    9.8187   -2.0895   25.5800 C   0  0  0  0  0  0  0  0  0  0  0  0
    5.6473   -8.7216   15.3158 C   0  0  0  0  0  0  0  0  0  0  0  0
   10.7581   -3.1233   19.4720 N   0  0  0  0  0  0  0  0  0  0  0  0
    9.9571   -4.0573   16.8866 C   0  0  0  0  0  0  0  0  0  0  0  0
    7.6213   -6.5618   16.0087 C   0  0  0  0  0  0  0  0  0  0  0  0
   10.8583   -2.6527   20.7222 C   0  0  0  0  0  0  0  0  0  0  0  0
   10.6412   -3.5089   21.7936 C   0  0  0  0  0  0  0  0  0  0  0  0
   10.4972   -3.8968   24.1589 C   0  0  0  0  0  0  0  0  0  0  0  0
    5.9260   -8.2736   16.5517 C   0  0  0  0  0  0  0  0  0  0  0  0
    3.8816   -9.1166   17.2493 C   0  0  0  0  0  0  0  0  0  0  0  0
   10.1297   -1.6575   23.2324 C   0  0  0  0  0  0  0  0  0  0  0  0
    9.4684   -1.6929   26.7263 F   0  0  0  0  0  0  0  0  0  0  0  0
    7.7963   -7.7906   17.9837 C   0  0  0  0  0  0  0  0  0  0  0  0
   10.5884   -3.0725   16.7902 O   0  0  0  0  0  0  0  0  0  0  0  0
   10.4323   -5.3494   20.3516 C   0  0  0  0  0  0  0  0  0  0  0  0
    7.1156   -7.5454   16.8218 C   0  0  0  0  0  0  0  0  0  0  0  0
   10.3885   -4.4388   19.2773 C   0  0  0  0  0  0  0  0  0  0  0  0
    4.5160   -9.3822   15.0841 C   0  0  0  0  0  0  0  0  0  0  0  0
  1  3  4  0
  1 24  4  0
  2  6  4  0
  2 15  4  0
  3  5  4  0
  3  6  4  0
  4 21  4  0
  4 29  4  0
  5 15  4  0
  5 28  1  0
  6 16  4  0
  7 18  4  0
  7 26  4  0
  8 18  1  0
  8 19  4  0
  8 22  4  0
  9 12  4  0
  9 19  4  0
 10 12  4  0
 10 22  4  0
 11 20  4  0
 11 21  4  0
 12 23  1  0
 13 20  4  0
 13 29  4  0
 14 17  4  0
 14 28  4  0
 15 25  2  0
 16 27  4  0
 17 18  4  0
 20 27  1  0
 24 27  4  0
 26 28  4  0
M  END
$$$$

 Created by Python create_sdf_string function

 29 33  0  0  0  0  0  0  0  0999 V2000
    8.8270   -7.0288   18.4251 C   0  0  0  0  0  0  0  0  0  0  0  0
    9.1576   -4.6236   15.8860 O   0  0  0  0  0  0  0  0  0  0  0  0
    9.1509   -5.9108   17.7177 C   0  0  0  0  0  0  0  0  0  0  0  0
    3.6373   -9.5349   16.0582 N   0  0  0  0  0  0  0  0  0  0  0  0
    9.9275   -4.8001   18.0438 N   0  0  0  0  0  0  0  0  0  0  0  0
    8.5908   -5.7425   16.4412 C   0  0  0  0  0  0  0  0  0  0  0  0
   10.5993   -4.8981   21.6068 C   0  0  0  0  0  0  0  0  0  0  0  0
   10.4258   -3.0106   23.0998 C   0  0  0  0  0  0  0  0  0  0  0  0
   10.2148   -3.4364   25.4200 C   0  0  0  0  0  0  0  0  0  0  0  0
    9.7853   -1.1840   24.4927 C   0  0  0  0  0  0  0  0  0  0  0  0
    5.0276   -8.5227   17.5352 C   0  0  0  0  0  0  0  0  0  0  0  0
    9.8187   -2.0895   25.5800 C   0  0  0  0  0  0  0  0  0  0  0  0
    5.6473   -8.7216   15.3158 C   0  0  0  0  0  0  0  0  0  0  0  0
   10.7581   -3.1233   19.4720 N   0  0  0  0  0  0  0  0  0  0  0  0
    9.9571   -4.0573   16.8866 C   0  0  0  0  0  0  0  0  0  0  0  0
    7.6213   -6.5618   16.0087 C   0  0  0  0  0  0  0  0  0  0  0  0
   10.8583   -2.6527   20.7222 C   0  0  0  0  0  0  0  0  0  0  0  0
   10.6412   -3.5089   21.7936 C   0  0  0  0  0  0  0  0  0  0  0  0
   10.4972   -3.8968   24.1589 C   0  0  0  0  0  0  0  0  0  0  0  0
    5.9260   -8.2736   16.5517 C   0  0  0  0  0  0  0  0  0  0  0  0
    3.8816   -9.1166   17.2493 C   0  0  0  0  0  0  0  0  0  0  0  0
   10.1297   -1.6575   23.2324 C   0  0  0  0  0  0  0  0  0  0  0  0
    9.4684   -1.6929   26.7263 F   0  0  0  0  0  0  0  0  0  0  0  0
    7.7963   -7.7906   17.9837 C   0  0  0  0  0  0  0  0  0  0  0  0
   10.5884   -3.0725   16.7902 O   0  0  0  0  0  0  0  0  0  0  0  0
   10.4323   -5.3494   20.3516 C   0  0  0  0  0  0  0  0  0  0  0  0
    7.1156   -7.5454   16.8218 C   0  0  0  0  0  0  0  0  0  0  0  0
   10.3885   -4.4388   19.2773 C   0  0  0  0  0  0  0  0  0  0  0  0
    4.5160   -9.3822   15.0841 C   0  0  0  0  0  0  0  0  0  0  0  0
  1  3  4  0
  1 24  4  0
  2  6  4  0
  2 15  4  0
  3  5  4  0
  3  6  4  0
  4 21  4  0
  4 29  4  0
  5 15  4  0
  5 28  1  0
  6 16  4  0
  7 18  4  0
  7 26  4  0
  8 18  1  0
  8 19  4  0
  8 22  4  0
  9 12  4  0
  9 19  4  0
 10 12  4  0
 10 22  4  0
 11 20  4  0
 11 21  4  0
 12 23  1  0
 13 20  4  0
 13 29  4  0
 14 17  4  0
 14 28  4  0
 15 25  2  0
 16 27  4  0
 17 18  4  0
 20 27  1  0
 24 27  4  0
 26 28  4  0
M  END
$$$$

 Created by Python create_sdf_string function

 29 33  0  0  0  0  0  0  0  0999 V2000
    8.8270   -7.0288   18.4251 C   0  0  0  0  0  0  0  0  0  0  0  0
    9.1576   -4.6236   15.8860 O   0  0  0  0  0  0  0  0  0  0  0  0
    9.1509   -5.9108   17.7177 C   0  0  0  0  0  0  0  0  0  0  0  0
    3.6373   -9.5349   16.0582 N   0  0  0  0  0  0  0  0  0  0  0  0
    9.9275   -4.8001   18.0438 N   0  0  0  0  0  0  0  0  0  0  0  0
    8.5908   -5.7425   16.4412 C   0  0  0  0  0  0  0  0  0  0  0  0
   10.5993   -4.8981   21.6068 C   0  0  0  0  0  0  0  0  0  0  0  0
   10.4258   -3.0106   23.0998 C   0  0  0  0  0  0  0  0  0  0  0  0
   10.2148   -3.4364   25.4200 C   0  0  0  0  0  0  0  0  0  0  0  0
    9.7853   -1.1840   24.4927 C   0  0  0  0  0  0  0  0  0  0  0  0
    5.0276   -8.5227   17.5352 C   0  0  0  0  0  0  0  0  0  0  0  0
    9.8187   -2.0895   25.5800 C   0  0  0  0  0  0  0  0  0  0  0  0
    5.6473   -8.7216   15.3158 C   0  0  0  0  0  0  0  0  0  0  0  0
   10.7581   -3.1233   19.4720 N   0  0  0  0  0  0  0  0  0  0  0  0
    9.9571   -4.0573   16.8866 C   0  0  0  0  0  0  0  0  0  0  0  0
    7.6213   -6.5618   16.0087 C   0  0  0  0  0  0  0  0  0  0  0  0
   10.8583   -2.6527   20.7222 C   0  0  0  0  0  0  0  0  0  0  0  0
   10.6412   -3.5089   21.7936 C   0  0  0  0  0  0  0  0  0  0  0  0
   10.4972   -3.8968   24.1589 C   0  0  0  0  0  0  0  0  0  0  0  0
    5.9260   -8.2736   16.5517 C   0  0  0  0  0  0  0  0  0  0  0  0
    3.8816   -9.1166   17.2493 C   0  0  0  0  0  0  0  0  0  0  0  0
   10.1297   -1.6575   23.2324 C   0  0  0  0  0  0  0  0  0  0  0  0
    9.4684   -1.6929   26.7263 F   0  0  0  0  0  0  0  0  0  0  0  0
    7.7963   -7.7906   17.9837 C   0  0  0  0  0  0  0  0  0  0  0  0
   10.5884   -3.0725   16.7902 O   0  0  0  0  0  0  0  0  0  0  0  0
   10.4323   -5.3494   20.3516 C   0  0  0  0  0  0  0  0  0  0  0  0
    7.1156   -7.5454   16.8218 C   0  0  0  0  0  0  0  0  0  0  0  0
   10.3885   -4.4388   19.2773 C   0  0  0  0  0  0  0  0  0  0  0  0
    4.5160   -9.3822   15.0841 C   0  0  0  0  0  0  0  0  0  0  0  0
  1  3  4  0
  1 24  4  0
  2  6  4  0
  2 15  4  0
  3  5  4  0
  3  6  4  0
  4 21  4  0
  4 29  4  0
  5 15  4  0
  5 28  1  0
  6 16  4  0
  7 18  4  0
  7 26  4  0
  8 18  1  0
  8 19  4  0
  8 22  4  0
  9 12  4  0
  9 19  4  0
 10 12  4  0
 10 22  4  0
 11 20  4  0
 11 21  4  0
 12 23  1  0
 13 20  4  0
 13 29  4  0
 14 17  4  0
 14 28  4  0
 15 25  2  0
 16 27  4  0
 17 18  4  0
 20 27  1  0
 24 27  4  0
 26 28  4  0
M  END
$$$$

 Created by Python create_sdf_string function

 29 33  0  0  0  0  0  0  0  0999 V2000
    8.8270   -7.0288   18.4251 C   0  0  0  0  0  0  0  0  0  0  0  0
    9.1576   -4.6236   15.8860 O   0  0  0  0  0  0  0  0  0  0  0  0
    9.1509   -5.9108   17.7177 C   0  0  0  0  0  0  0  0  0  0  0  0
    3.6373   -9.5349   16.0582 N   0  0  0  0  0  0  0  0  0  0  0  0
    9.9275   -4.8001   18.0438 N   0  0  0  0  0  0  0  0  0  0  0  0
    8.5908   -5.7425   16.4412 C   0  0  0  0  0  0  0  0  0  0  0  0
   10.5993   -4.8981   21.6068 C   0  0  0  0  0  0  0  0  0  0  0  0
   10.4258   -3.0106   23.0998 C   0  0  0  0  0  0  0  0  0  0  0  0
   10.2148   -3.4364   25.4200 C   0  0  0  0  0  0  0  0  0  0  0  0
    9.7853   -1.1840   24.4927 C   0  0  0  0  0  0  0  0  0  0  0  0
    5.0276   -8.5227   17.5352 C   0  0  0  0  0  0  0  0  0  0  0  0
    9.8187   -2.0895   25.5800 C   0  0  0  0  0  0  0  0  0  0  0  0
    5.6473   -8.7216   15.3158 C   0  0  0  0  0  0  0  0  0  0  0  0
   10.7581   -3.1233   19.4720 N   0  0  0  0  0  0  0  0  0  0  0  0
    9.9571   -4.0573   16.8866 C   0  0  0  0  0  0  0  0  0  0  0  0
    7.6213   -6.5618   16.0087 C   0  0  0  0  0  0  0  0  0  0  0  0
   10.8583   -2.6527   20.7222 C   0  0  0  0  0  0  0  0  0  0  0  0
   10.6412   -3.5089   21.7936 C   0  0  0  0  0  0  0  0  0  0  0  0
   10.4972   -3.8968   24.1589 C   0  0  0  0  0  0  0  0  0  0  0  0
    5.9260   -8.2736   16.5517 C   0  0  0  0  0  0  0  0  0  0  0  0
    3.8816   -9.1166   17.2493 C   0  0  0  0  0  0  0  0  0  0  0  0
   10.1297   -1.6575   23.2324 C   0  0  0  0  0  0  0  0  0  0  0  0
    9.4684   -1.6929   26.7263 F   0  0  0  0  0  0  0  0  0  0  0  0
    7.7963   -7.7906   17.9837 C   0  0  0  0  0  0  0  0  0  0  0  0
   10.5884   -3.0725   16.7902 O   0  0  0  0  0  0  0  0  0  0  0  0
   10.4323   -5.3494   20.3516 C   0  0  0  0  0  0  0  0  0  0  0  0
    7.1156   -7.5454   16.8218 C   0  0  0  0  0  0  0  0  0  0  0  0
   10.3885   -4.4388   19.2773 C   0  0  0  0  0  0  0  0  0  0  0  0
    4.5160   -9.3822   15.0841 C   0  0  0  0  0  0  0  0  0  0  0  0
  1  3  4  0
  1 24  4  0
  2  6  4  0
  2 15  4  0
  3  5  4  0
  3  6  4  0
  4 21  4  0
  4 29  4  0
  5 15  4  0
  5 28  1  0
  6 16  4  0
  7 18  4  0
  7 26  4  0
  8 18  1  0
  8 19  4  0
  8 22  4  0
  9 12  4  0
  9 19  4  0
 10 12  4  0
 10 22  4  0
 11 20  4  0
 11 21  4  0
 12 23  1  0
 13 20  4  0
 13 29  4  0
 14 17  4  0
 14 28  4  0
 15 25  2  0
 16 27  4  0
 17 18  4  0
 20 27  1  0
 24 27  4  0
 26 28  4  0
M  END
$$$$

 Created by Python create_sdf_string function

 29 33  0  0  0  0  0  0  0  0999 V2000
    8.8270   -7.0288   18.4251 C   0  0  0  0  0  0  0  0  0  0  0  0
    9.1576   -4.6236   15.8860 O   0  0  0  0  0  0  0  0  0  0  0  0
    9.1509   -5.9108   17.7177 C   0  0  0  0  0  0  0  0  0  0  0  0
    3.6373   -9.5349   16.0582 N   0  0  0  0  0  0  0  0  0  0  0  0
    9.9275   -4.8001   18.0438 N   0  0  0  0  0  0  0  0  0  0  0  0
    8.5908   -5.7425   16.4412 C   0  0  0  0  0  0  0  0  0  0  0  0
   10.5993   -4.8981   21.6068 C   0  0  0  0  0  0  0  0  0  0  0  0
   10.4258   -3.0106   23.0998 C   0  0  0  0  0  0  0  0  0  0  0  0
   10.2148   -3.4364   25.4200 C   0  0  0  0  0  0  0  0  0  0  0  0
    9.7853   -1.1840   24.4927 C   0  0  0  0  0  0  0  0  0  0  0  0
    5.0276   -8.5227   17.5352 C   0  0  0  0  0  0  0  0  0  0  0  0
    9.8187   -2.0895   25.5800 C   0  0  0  0  0  0  0  0  0  0  0  0
    5.6473   -8.7216   15.3158 C   0  0  0  0  0  0  0  0  0  0  0  0
   10.7581   -3.1233   19.4720 N   0  0  0  0  0  0  0  0  0  0  0  0
    9.9571   -4.0573   16.8866 C   0  0  0  0  0  0  0  0  0  0  0  0
    7.6213   -6.5618   16.0087 C   0  0  0  0  0  0  0  0  0  0  0  0
   10.8583   -2.6527   20.7222 C   0  0  0  0  0  0  0  0  0  0  0  0
   10.6412   -3.5089   21.7936 C   0  0  0  0  0  0  0  0  0  0  0  0
   10.4972   -3.8968   24.1589 C   0  0  0  0  0  0  0  0  0  0  0  0
    5.9260   -8.2736   16.5517 C   0  0  0  0  0  0  0  0  0  0  0  0
    3.8816   -9.1166   17.2493 C   0  0  0  0  0  0  0  0  0  0  0  0
   10.1297   -1.6575   23.2324 C   0  0  0  0  0  0  0  0  0  0  0  0
    9.4684   -1.6929   26.7263 F   0  0  0  0  0  0  0  0  0  0  0  0
    7.7963   -7.7906   17.9837 C   0  0  0  0  0  0  0  0  0  0  0  0
   10.5884   -3.0725   16.7902 O   0  0  0  0  0  0  0  0  0  0  0  0
   10.4323   -5.3494   20.3516 C   0  0  0  0  0  0  0  0  0  0  0  0
    7.1156   -7.5454   16.8218 C   0  0  0  0  0  0  0  0  0  0  0  0
   10.3885   -4.4388   19.2773 C   0  0  0  0  0  0  0  0  0  0  0  0
    4.5160   -9.3822   15.0841 C   0  0  0  0  0  0  0  0  0  0  0  0
  1  3  4  0
  1 24  4  0
  2  6  4  0
  2 15  4  0
  3  5  4  0
  3  6  4  0
  4 21  4  0
  4 29  4  0
  5 15  4  0
  5 28  1  0
  6 16  4  0
  7 18  4  0
  7 26  4  0
  8 18  1  0
  8 19  4  0
  8 22  4  0
  9 12  4  0
  9 19  4  0
 10 12  4  0
 10 22  4  0
 11 20  4  0
 11 21  4  0
 12 23  1  0
 13 20  4  0
 13 29  4  0
 14 17  4  0
 14 28  4  0
 15 25  2  0
 16 27  4  0
 17 18  4  0
 20 27  1  0
 24 27  4  0
 26 28  4  0
M  END
$$$$

 Created by Python create_sdf_string function

 29 33  0  0  0  0  0  0  0  0999 V2000
    8.8270   -7.0288   18.4251 C   0  0  0  0  0  0  0  0  0  0  0  0
    9.1576   -4.6236   15.8860 O   0  0  0  0  0  0  0  0  0  0  0  0
    9.1509   -5.9108   17.7177 C   0  0  0  0  0  0  0  0  0  0  0  0
    3.6373   -9.5349   16.0582 N   0  0  0  0  0  0  0  0  0  0  0  0
    9.9275   -4.8001   18.0438 N   0  0  0  0  0  0  0  0  0  0  0  0
    8.5908   -5.7425   16.4412 C   0  0  0  0  0  0  0  0  0  0  0  0
   10.5993   -4.8981   21.6068 C   0  0  0  0  0  0  0  0  0  0  0  0
   10.4258   -3.0106   23.0998 C   0  0  0  0  0  0  0  0  0  0  0  0
   10.2148   -3.4364   25.4200 C   0  0  0  0  0  0  0  0  0  0  0  0
    9.7853   -1.1840   24.4927 C   0  0  0  0  0  0  0  0  0  0  0  0
    5.0276   -8.5227   17.5352 C   0  0  0  0  0  0  0  0  0  0  0  0
    9.8187   -2.0895   25.5800 C   0  0  0  0  0  0  0  0  0  0  0  0
    5.6473   -8.7216   15.3158 C   0  0  0  0  0  0  0  0  0  0  0  0
   10.7581   -3.1233   19.4720 N   0  0  0  0  0  0  0  0  0  0  0  0
    9.9571   -4.0573   16.8866 C   0  0  0  0  0  0  0  0  0  0  0  0
    7.6213   -6.5618   16.0087 C   0  0  0  0  0  0  0  0  0  0  0  0
   10.8583   -2.6527   20.7222 C   0  0  0  0  0  0  0  0  0  0  0  0
   10.6412   -3.5089   21.7936 C   0  0  0  0  0  0  0  0  0  0  0  0
   10.4972   -3.8968   24.1589 C   0  0  0  0  0  0  0  0  0  0  0  0
    5.9260   -8.2736   16.5517 C   0  0  0  0  0  0  0  0  0  0  0  0
    3.8816   -9.1166   17.2493 C   0  0  0  0  0  0  0  0  0  0  0  0
   10.1297   -1.6575   23.2324 C   0  0  0  0  0  0  0  0  0  0  0  0
    9.4684   -1.6929   26.7263 F   0  0  0  0  0  0  0  0  0  0  0  0
    7.7963   -7.7906   17.9837 C   0  0  0  0  0  0  0  0  0  0  0  0
   10.5884   -3.0725   16.7902 O   0  0  0  0  0  0  0  0  0  0  0  0
   10.4323   -5.3494   20.3516 C   0  0  0  0  0  0  0  0  0  0  0  0
    7.1156   -7.5454   16.8218 C   0  0  0  0  0  0  0  0  0  0  0  0
   10.3885   -4.4388   19.2773 C   0  0  0  0  0  0  0  0  0  0  0  0
    4.5160   -9.3822   15.0841 C   0  0  0  0  0  0  0  0  0  0  0  0
  1  3  4  0
  1 24  4  0
  2  6  4  0
  2 15  4  0
  3  5  4  0
  3  6  4  0
  4 21  4  0
  4 29  4  0
  5 15  4  0
  5 28  1  0
  6 16  4  0
  7 18  4  0
  7 26  4  0
  8 18  1  0
  8 19  4  0
  8 22  4  0
  9 12  4  0
  9 19  4  0
 10 12  4  0
 10 22  4  0
 11 20  4  0
 11 21  4  0
 12 23  1  0
 13 20  4  0
 13 29  4  0
 14 17  4  0
 14 28  4  0
 15 25  2  0
 16 27  4  0
 17 18  4  0
 20 27  1  0
 24 27  4  0
 26 28  4  0
M  END
$$$$

 Created by Python create_sdf_string function

 29 33  0  0  0  0  0  0  0  0999 V2000
    8.8270   -7.0288   18.4251 C   0  0  0  0  0  0  0  0  0  0  0  0
    9.1576   -4.6236   15.8860 O   0  0  0  0  0  0  0  0  0  0  0  0
    9.1509   -5.9108   17.7177 C   0  0  0  0  0  0  0  0  0  0  0  0
    3.6373   -9.5349   16.0582 N   0  0  0  0  0  0  0  0  0  0  0  0
    9.9275   -4.8001   18.0438 N   0  0  0  0  0  0  0  0  0  0  0  0
    8.5908   -5.7425   16.4412 C   0  0  0  0  0  0  0  0  0  0  0  0
   10.5993   -4.8981   21.6068 C   0  0  0  0  0  0  0  0  0  0  0  0
   10.4258   -3.0106   23.0998 C   0  0  0  0  0  0  0  0  0  0  0  0
   10.2148   -3.4364   25.4200 C   0  0  0  0  0  0  0  0  0  0  0  0
    9.7853   -1.1840   24.4927 C   0  0  0  0  0  0  0  0  0  0  0  0
    5.0276   -8.5227   17.5352 C   0  0  0  0  0  0  0  0  0  0  0  0
    9.8187   -2.0895   25.5800 C   0  0  0  0  0  0  0  0  0  0  0  0
    5.6473   -8.7216   15.3158 C   0  0  0  0  0  0  0  0  0  0  0  0
   10.7581   -3.1233   19.4720 N   0  0  0  0  0  0  0  0  0  0  0  0
    9.9571   -4.0573   16.8866 C   0  0  0  0  0  0  0  0  0  0  0  0
    7.6213   -6.5618   16.0087 C   0  0  0  0  0  0  0  0  0  0  0  0
   10.8583   -2.6527   20.7222 C   0  0  0  0  0  0  0  0  0  0  0  0
   10.6412   -3.5089   21.7936 C   0  0  0  0  0  0  0  0  0  0  0  0
   10.4972   -3.8968   24.1589 C   0  0  0  0  0  0  0  0  0  0  0  0
    5.9260   -8.2736   16.5517 C   0  0  0  0  0  0  0  0  0  0  0  0
    3.8816   -9.1166   17.2493 C   0  0  0  0  0  0  0  0  0  0  0  0
   10.1297   -1.6575   23.2324 C   0  0  0  0  0  0  0  0  0  0  0  0
    9.4684   -1.6929   26.7263 F   0  0  0  0  0  0  0  0  0  0  0  0
    7.7963   -7.7906   17.9837 C   0  0  0  0  0  0  0  0  0  0  0  0
   10.5884   -3.0725   16.7902 O   0  0  0  0  0  0  0  0  0  0  0  0
   10.4323   -5.3494   20.3516 C   0  0  0  0  0  0  0  0  0  0  0  0
    7.1156   -7.5454   16.8218 C   0  0  0  0  0  0  0  0  0  0  0  0
   10.3885   -4.4388   19.2773 C   0  0  0  0  0  0  0  0  0  0  0  0
    4.5160   -9.3822   15.0841 C   0  0  0  0  0  0  0  0  0  0  0  0
  1  3  4  0
  1 24  4  0
  2  6  4  0
  2 15  4  0
  3  5  4  0
  3  6  4  0
  4 21  4  0
  4 29  4  0
  5 15  4  0
  5 28  1  0
  6 16  4  0
  7 18  4  0
  7 26  4  0
  8 18  1  0
  8 19  4  0
  8 22  4  0
  9 12  4  0
  9 19  4  0
 10 12  4  0
 10 22  4  0
 11 20  4  0
 11 21  4  0
 12 23  1  0
 13 20  4  0
 13 29  4  0
 14 17  4  0
 14 28  4  0
 15 25  2  0
 16 27  4  0
 17 18  4  0
 20 27  1  0
 24 27  4  0
 26 28  4  0
M  END
$$$$

 Created by Python create_sdf_string function

 29 33  0  0  0  0  0  0  0  0999 V2000
    8.8270   -7.0288   18.4251 C   0  0  0  0  0  0  0  0  0  0  0  0
    9.1576   -4.6236   15.8860 O   0  0  0  0  0  0  0  0  0  0  0  0
    9.1509   -5.9108   17.7177 C   0  0  0  0  0  0  0  0  0  0  0  0
    3.6373   -9.5349   16.0582 N   0  0  0  0  0  0  0  0  0  0  0  0
    9.9275   -4.8001   18.0438 N   0  0  0  0  0  0  0  0  0  0  0  0
    8.5908   -5.7425   16.4412 C   0  0  0  0  0  0  0  0  0  0  0  0
   10.5993   -4.8981   21.6068 C   0  0  0  0  0  0  0  0  0  0  0  0
   10.4258   -3.0106   23.0998 C   0  0  0  0  0  0  0  0  0  0  0  0
   10.2148   -3.4364   25.4200 C   0  0  0  0  0  0  0  0  0  0  0  0
    9.7853   -1.1840   24.4927 C   0  0  0  0  0  0  0  0  0  0  0  0
    5.0276   -8.5227   17.5352 C   0  0  0  0  0  0  0  0  0  0  0  0
    9.8187   -2.0895   25.5800 C   0  0  0  0  0  0  0  0  0  0  0  0
    5.6473   -8.7216   15.3158 C   0  0  0  0  0  0  0  0  0  0  0  0
   10.7581   -3.1233   19.4720 N   0  0  0  0  0  0  0  0  0  0  0  0
    9.9571   -4.0573   16.8866 C   0  0  0  0  0  0  0  0  0  0  0  0
    7.6213   -6.5618   16.0087 C   0  0  0  0  0  0  0  0  0  0  0  0
   10.8583   -2.6527   20.7222 C   0  0  0  0  0  0  0  0  0  0  0  0
   10.6412   -3.5089   21.7936 C   0  0  0  0  0  0  0  0  0  0  0  0
   10.4972   -3.8968   24.1589 C   0  0  0  0  0  0  0  0  0  0  0  0
    5.9260   -8.2736   16.5517 C   0  0  0  0  0  0  0  0  0  0  0  0
    3.8816   -9.1166   17.2493 C   0  0  0  0  0  0  0  0  0  0  0  0
   10.1297   -1.6575   23.2324 C   0  0  0  0  0  0  0  0  0  0  0  0
    9.4684   -1.6929   26.7263 F   0  0  0  0  0  0  0  0  0  0  0  0
    7.7963   -7.7906   17.9837 C   0  0  0  0  0  0  0  0  0  0  0  0
   10.5884   -3.0725   16.7902 O   0  0  0  0  0  0  0  0  0  0  0  0
   10.4323   -5.3494   20.3516 C   0  0  0  0  0  0  0  0  0  0  0  0
    7.1156   -7.5454   16.8218 C   0  0  0  0  0  0  0  0  0  0  0  0
   10.3885   -4.4388   19.2773 C   0  0  0  0  0  0  0  0  0  0  0  0
    4.5160   -9.3822   15.0841 C   0  0  0  0  0  0  0  0  0  0  0  0
  1  3  4  0
  1 24  4  0
  2  6  4  0
  2 15  4  0
  3  5  4  0
  3  6  4  0
  4 21  4  0
  4 29  4  0
  5 15  4  0
  5 28  1  0
  6 16  4  0
  7 18  4  0
  7 26  4  0
  8 18  1  0
  8 19  4  0
  8 22  4  0
  9 12  4  0
  9 19  4  0
 10 12  4  0
 10 22  4  0
 11 20  4  0
 11 21  4  0
 12 23  1  0
 13 20  4  0
 13 29  4  0
 14 17  4  0
 14 28  4  0
 15 25  2  0
 16 27  4  0
 17 18  4  0
 20 27  1  0
 24 27  4  0
 26 28  4  0
M  END
$$$$

 Created by Python create_sdf_string function

 29 33  0  0  0  0  0  0  0  0999 V2000
    8.8270   -7.0288   18.4251 C   0  0  0  0  0  0  0  0  0  0  0  0
    9.1576   -4.6236   15.8860 O   0  0  0  0  0  0  0  0  0  0  0  0
    9.1509   -5.9108   17.7177 C   0  0  0  0  0  0  0  0  0  0  0  0
    3.6373   -9.5349   16.0582 N   0  0  0  0  0  0  0  0  0  0  0  0
    9.9275   -4.8001   18.0438 N   0  0  0  0  0  0  0  0  0  0  0  0
    8.5908   -5.7425   16.4412 C   0  0  0  0  0  0  0  0  0  0  0  0
   10.5993   -4.8981   21.6068 C   0  0  0  0  0  0  0  0  0  0  0  0
   10.4258   -3.0106   23.0998 C   0  0  0  0  0  0  0  0  0  0  0  0
   10.2148   -3.4364   25.4200 C   0  0  0  0  0  0  0  0  0  0  0  0
    9.7853   -1.1840   24.4927 C   0  0  0  0  0  0  0  0  0  0  0  0
    5.0276   -8.5227   17.5352 C   0  0  0  0  0  0  0  0  0  0  0  0
    9.8187   -2.0895   25.5800 C   0  0  0  0  0  0  0  0  0  0  0  0
    5.6473   -8.7216   15.3158 C   0  0  0  0  0  0  0  0  0  0  0  0
   10.7581   -3.1233   19.4720 N   0  0  0  0  0  0  0  0  0  0  0  0
    9.9571   -4.0573   16.8866 C   0  0  0  0  0  0  0  0  0  0  0  0
    7.6213   -6.5618   16.0087 C   0  0  0  0  0  0  0  0  0  0  0  0
   10.8583   -2.6527   20.7222 C   0  0  0  0  0  0  0  0  0  0  0  0
   10.6412   -3.5089   21.7936 C   0  0  0  0  0  0  0  0  0  0  0  0
   10.4972   -3.8968   24.1589 C   0  0  0  0  0  0  0  0  0  0  0  0
    5.9260   -8.2736   16.5517 C   0  0  0  0  0  0  0  0  0  0  0  0
    3.8816   -9.1166   17.2493 C   0  0  0  0  0  0  0  0  0  0  0  0
   10.1297   -1.6575   23.2324 C   0  0  0  0  0  0  0  0  0  0  0  0
    9.4684   -1.6929   26.7263 F   0  0  0  0  0  0  0  0  0  0  0  0
    7.7963   -7.7906   17.9837 C   0  0  0  0  0  0  0  0  0  0  0  0
   10.5884   -3.0725   16.7902 O   0  0  0  0  0  0  0  0  0  0  0  0
   10.4323   -5.3494   20.3516 C   0  0  0  0  0  0  0  0  0  0  0  0
    7.1156   -7.5454   16.8218 C   0  0  0  0  0  0  0  0  0  0  0  0
   10.3885   -4.4388   19.2773 C   0  0  0  0  0  0  0  0  0  0  0  0
    4.5160   -9.3822   15.0841 C   0  0  0  0  0  0  0  0  0  0  0  0
  1  3  4  0
  1 24  4  0
  2  6  4  0
  2 15  4  0
  3  5  4  0
  3  6  4  0
  4 21  4  0
  4 29  4  0
  5 15  4  0
  5 28  1  0
  6 16  4  0
  7 18  4  0
  7 26  4  0
  8 18  1  0
  8 19  4  0
  8 22  4  0
  9 12  4  0
  9 19  4  0
 10 12  4  0
 10 22  4  0
 11 20  4  0
 11 21  4  0
 12 23  1  0
 13 20  4  0
 13 29  4  0
 14 17  4  0
 14 28  4  0
 15 25  2  0
 16 27  4  0
 17 18  4  0
 20 27  1  0
 24 27  4  0
 26 28  4  0
M  END
$$$$

 Created by Python create_sdf_string function

 29 33  0  0  0  0  0  0  0  0999 V2000
    8.8270   -7.0288   18.4251 C   0  0  0  0  0  0  0  0  0  0  0  0
    9.1576   -4.6236   15.8860 O   0  0  0  0  0  0  0  0  0  0  0  0
    9.1509   -5.9108   17.7177 C   0  0  0  0  0  0  0  0  0  0  0  0
    3.6373   -9.5349   16.0582 N   0  0  0  0  0  0  0  0  0  0  0  0
    9.9275   -4.8001   18.0438 N   0  0  0  0  0  0  0  0  0  0  0  0
    8.5908   -5.7425   16.4412 C   0  0  0  0  0  0  0  0  0  0  0  0
   10.5993   -4.8981   21.6068 C   0  0  0  0  0  0  0  0  0  0  0  0
   10.4258   -3.0106   23.0998 C   0  0  0  0  0  0  0  0  0  0  0  0
   10.2148   -3.4364   25.4200 C   0  0  0  0  0  0  0  0  0  0  0  0
    9.7853   -1.1840   24.4927 C   0  0  0  0  0  0  0  0  0  0  0  0
    5.0276   -8.5227   17.5352 C   0  0  0  0  0  0  0  0  0  0  0  0
    9.8187   -2.0895   25.5800 C   0  0  0  0  0  0  0  0  0  0  0  0
    5.6473   -8.7216   15.3158 C   0  0  0  0  0  0  0  0  0  0  0  0
   10.7581   -3.1233   19.4720 N   0  0  0  0  0  0  0  0  0  0  0  0
    9.9571   -4.0573   16.8866 C   0  0  0  0  0  0  0  0  0  0  0  0
    7.6213   -6.5618   16.0087 C   0  0  0  0  0  0  0  0  0  0  0  0
   10.8583   -2.6527   20.7222 C   0  0  0  0  0  0  0  0  0  0  0  0
   10.6412   -3.5089   21.7936 C   0  0  0  0  0  0  0  0  0  0  0  0
   10.4972   -3.8968   24.1589 C   0  0  0  0  0  0  0  0  0  0  0  0
    5.9260   -8.2736   16.5517 C   0  0  0  0  0  0  0  0  0  0  0  0
    3.8816   -9.1166   17.2493 C   0  0  0  0  0  0  0  0  0  0  0  0
   10.1297   -1.6575   23.2324 C   0  0  0  0  0  0  0  0  0  0  0  0
    9.4684   -1.6929   26.7263 F   0  0  0  0  0  0  0  0  0  0  0  0
    7.7963   -7.7906   17.9837 C   0  0  0  0  0  0  0  0  0  0  0  0
   10.5884   -3.0725   16.7902 O   0  0  0  0  0  0  0  0  0  0  0  0
   10.4323   -5.3494   20.3516 C   0  0  0  0  0  0  0  0  0  0  0  0
    7.1156   -7.5454   16.8218 C   0  0  0  0  0  0  0  0  0  0  0  0
   10.3885   -4.4388   19.2773 C   0  0  0  0  0  0  0  0  0  0  0  0
    4.5160   -9.3822   15.0841 C   0  0  0  0  0  0  0  0  0  0  0  0
  1  3  4  0
  1 24  4  0
  2  6  4  0
  2 15  4  0
  3  5  4  0
  3  6  4  0
  4 21  4  0
  4 29  4  0
  5 15  4  0
  5 28  1  0
  6 16  4  0
  7 18  4  0
  7 26  4  0
  8 18  1  0
  8 19  4  0
  8 22  4  0
  9 12  4  0
  9 19  4  0
 10 12  4  0
 10 22  4  0
 11 20  4  0
 11 21  4  0
 12 23  1  0
 13 20  4  0
 13 29  4  0
 14 17  4  0
 14 28  4  0
 15 25  2  0
 16 27  4  0
 17 18  4  0
 20 27  1  0
 24 27  4  0
 26 28  4  0
M  END
$$$$

 Created by Python create_sdf_string function

 29 33  0  0  0  0  0  0  0  0999 V2000
    8.8270   -7.0288   18.4251 C   0  0  0  0  0  0  0  0  0  0  0  0
    9.1576   -4.6236   15.8860 O   0  0  0  0  0  0  0  0  0  0  0  0
    9.1509   -5.9108   17.7177 C   0  0  0  0  0  0  0  0  0  0  0  0
    3.6373   -9.5349   16.0582 N   0  0  0  0  0  0  0  0  0  0  0  0
    9.9275   -4.8001   18.0438 N   0  0  0  0  0  0  0  0  0  0  0  0
    8.5908   -5.7425   16.4412 C   0  0  0  0  0  0  0  0  0  0  0  0
   10.5993   -4.8981   21.6068 C   0  0  0  0  0  0  0  0  0  0  0  0
   10.4258   -3.0106   23.0998 C   0  0  0  0  0  0  0  0  0  0  0  0
   10.2148   -3.4364   25.4200 C   0  0  0  0  0  0  0  0  0  0  0  0
    9.7853   -1.1840   24.4927 C   0  0  0  0  0  0  0  0  0  0  0  0
    5.0276   -8.5227   17.5352 C   0  0  0  0  0  0  0  0  0  0  0  0
    9.8187   -2.0895   25.5800 C   0  0  0  0  0  0  0  0  0  0  0  0
    5.6473   -8.7216   15.3158 C   0  0  0  0  0  0  0  0  0  0  0  0
   10.7581   -3.1233   19.4720 N   0  0  0  0  0  0  0  0  0  0  0  0
    9.9571   -4.0573   16.8866 C   0  0  0  0  0  0  0  0  0  0  0  0
    7.6213   -6.5618   16.0087 C   0  0  0  0  0  0  0  0  0  0  0  0
   10.8583   -2.6527   20.7222 C   0  0  0  0  0  0  0  0  0  0  0  0
   10.6412   -3.5089   21.7936 C   0  0  0  0  0  0  0  0  0  0  0  0
   10.4972   -3.8968   24.1589 C   0  0  0  0  0  0  0  0  0  0  0  0
    5.9260   -8.2736   16.5517 C   0  0  0  0  0  0  0  0  0  0  0  0
    3.8816   -9.1166   17.2493 C   0  0  0  0  0  0  0  0  0  0  0  0
   10.1297   -1.6575   23.2324 C   0  0  0  0  0  0  0  0  0  0  0  0
    9.4684   -1.6929   26.7263 F   0  0  0  0  0  0  0  0  0  0  0  0
    7.7963   -7.7906   17.9837 C   0  0  0  0  0  0  0  0  0  0  0  0
   10.5884   -3.0725   16.7902 O   0  0  0  0  0  0  0  0  0  0  0  0
   10.4323   -5.3494   20.3516 C   0  0  0  0  0  0  0  0  0  0  0  0
    7.1156   -7.5454   16.8218 C   0  0  0  0  0  0  0  0  0  0  0  0
   10.3885   -4.4388   19.2773 C   0  0  0  0  0  0  0  0  0  0  0  0
    4.5160   -9.3822   15.0841 C   0  0  0  0  0  0  0  0  0  0  0  0
  1  3  4  0
  1 24  4  0
  2  6  4  0
  2 15  4  0
  3  5  4  0
  3  6  4  0
  4 21  4  0
  4 29  4  0
  5 15  4  0
  5 28  1  0
  6 16  4  0
  7 18  4  0
  7 26  4  0
  8 18  1  0
  8 19  4  0
  8 22  4  0
  9 12  4  0
  9 19  4  0
 10 12  4  0
 10 22  4  0
 11 20  4  0
 11 21  4  0
 12 23  1  0
 13 20  4  0
 13 29  4  0
 14 17  4  0
 14 28  4  0
 15 25  2  0
 16 27  4  0
 17 18  4  0
 20 27  1  0
 24 27  4  0
 26 28  4  0
M  END
$$$$

 Created by Python create_sdf_string function

 29 33  0  0  0  0  0  0  0  0999 V2000
    8.8270   -7.0288   18.4251 C   0  0  0  0  0  0  0  0  0  0  0  0
    9.1576   -4.6236   15.8860 O   0  0  0  0  0  0  0  0  0  0  0  0
    9.1509   -5.9108   17.7177 C   0  0  0  0  0  0  0  0  0  0  0  0
    3.6373   -9.5349   16.0582 N   0  0  0  0  0  0  0  0  0  0  0  0
    9.9275   -4.8001   18.0438 N   0  0  0  0  0  0  0  0  0  0  0  0
    8.5908   -5.7425   16.4412 C   0  0  0  0  0  0  0  0  0  0  0  0
   10.5993   -4.8981   21.6068 C   0  0  0  0  0  0  0  0  0  0  0  0
   10.4258   -3.0106   23.0998 C   0  0  0  0  0  0  0  0  0  0  0  0
   10.2148   -3.4364   25.4200 C   0  0  0  0  0  0  0  0  0  0  0  0
    9.7853   -1.1840   24.4927 C   0  0  0  0  0  0  0  0  0  0  0  0
    5.0276   -8.5227   17.5352 C   0  0  0  0  0  0  0  0  0  0  0  0
    9.8187   -2.0895   25.5800 C   0  0  0  0  0  0  0  0  0  0  0  0
    5.6473   -8.7216   15.3158 C   0  0  0  0  0  0  0  0  0  0  0  0
   10.7581   -3.1233   19.4720 N   0  0  0  0  0  0  0  0  0  0  0  0
    9.9571   -4.0573   16.8866 C   0  0  0  0  0  0  0  0  0  0  0  0
    7.6213   -6.5618   16.0087 C   0  0  0  0  0  0  0  0  0  0  0  0
   10.8583   -2.6527   20.7222 C   0  0  0  0  0  0  0  0  0  0  0  0
   10.6412   -3.5089   21.7936 C   0  0  0  0  0  0  0  0  0  0  0  0
   10.4972   -3.8968   24.1589 C   0  0  0  0  0  0  0  0  0  0  0  0
    5.9260   -8.2736   16.5517 C   0  0  0  0  0  0  0  0  0  0  0  0
    3.8816   -9.1166   17.2493 C   0  0  0  0  0  0  0  0  0  0  0  0
   10.1297   -1.6575   23.2324 C   0  0  0  0  0  0  0  0  0  0  0  0
    9.4684   -1.6929   26.7263 F   0  0  0  0  0  0  0  0  0  0  0  0
    7.7963   -7.7906   17.9837 C   0  0  0  0  0  0  0  0  0  0  0  0
   10.5884   -3.0725   16.7902 O   0  0  0  0  0  0  0  0  0  0  0  0
   10.4323   -5.3494   20.3516 C   0  0  0  0  0  0  0  0  0  0  0  0
    7.1156   -7.5454   16.8218 C   0  0  0  0  0  0  0  0  0  0  0  0
   10.3885   -4.4388   19.2773 C   0  0  0  0  0  0  0  0  0  0  0  0
    4.5160   -9.3822   15.0841 C   0  0  0  0  0  0  0  0  0  0  0  0
  1  3  4  0
  1 24  4  0
  2  6  4  0
  2 15  4  0
  3  5  4  0
  3  6  4  0
  4 21  4  0
  4 29  4  0
  5 15  4  0
  5 28  1  0
  6 16  4  0
  7 18  4  0
  7 26  4  0
  8 18  1  0
  8 19  4  0
  8 22  4  0
  9 12  4  0
  9 19  4  0
 10 12  4  0
 10 22  4  0
 11 20  4  0
 11 21  4  0
 12 23  1  0
 13 20  4  0
 13 29  4  0
 14 17  4  0
 14 28  4  0
 15 25  2  0
 16 27  4  0
 17 18  4  0
 20 27  1  0
 24 27  4  0
 26 28  4  0
M  END
$$$$

 Created by Python create_sdf_string function

 29 33  0  0  0  0  0  0  0  0999 V2000
    8.8270   -7.0288   18.4251 C   0  0  0  0  0  0  0  0  0  0  0  0
    9.1576   -4.6236   15.8860 O   0  0  0  0  0  0  0  0  0  0  0  0
    9.1509   -5.9108   17.7177 C   0  0  0  0  0  0  0  0  0  0  0  0
    3.6373   -9.5349   16.0582 N   0  0  0  0  0  0  0  0  0  0  0  0
    9.9275   -4.8001   18.0438 N   0  0  0  0  0  0  0  0  0  0  0  0
    8.5908   -5.7425   16.4412 C   0  0  0  0  0  0  0  0  0  0  0  0
   10.5993   -4.8981   21.6068 C   0  0  0  0  0  0  0  0  0  0  0  0
   10.4258   -3.0106   23.0998 C   0  0  0  0  0  0  0  0  0  0  0  0
   10.2148   -3.4364   25.4200 C   0  0  0  0  0  0  0  0  0  0  0  0
    9.7853   -1.1840   24.4927 C   0  0  0  0  0  0  0  0  0  0  0  0
    5.0276   -8.5227   17.5352 C   0  0  0  0  0  0  0  0  0  0  0  0
    9.8187   -2.0895   25.5800 C   0  0  0  0  0  0  0  0  0  0  0  0
    5.6473   -8.7216   15.3158 C   0  0  0  0  0  0  0  0  0  0  0  0
   10.7581   -3.1233   19.4720 N   0  0  0  0  0  0  0  0  0  0  0  0
    9.9571   -4.0573   16.8866 C   0  0  0  0  0  0  0  0  0  0  0  0
    7.6213   -6.5618   16.0087 C   0  0  0  0  0  0  0  0  0  0  0  0
   10.8583   -2.6527   20.7222 C   0  0  0  0  0  0  0  0  0  0  0  0
   10.6412   -3.5089   21.7936 C   0  0  0  0  0  0  0  0  0  0  0  0
   10.4972   -3.8968   24.1589 C   0  0  0  0  0  0  0  0  0  0  0  0
    5.9260   -8.2736   16.5517 C   0  0  0  0  0  0  0  0  0  0  0  0
    3.8816   -9.1166   17.2493 C   0  0  0  0  0  0  0  0  0  0  0  0
   10.1297   -1.6575   23.2324 C   0  0  0  0  0  0  0  0  0  0  0  0
    9.4684   -1.6929   26.7263 F   0  0  0  0  0  0  0  0  0  0  0  0
    7.7963   -7.7906   17.9837 C   0  0  0  0  0  0  0  0  0  0  0  0
   10.5884   -3.0725   16.7902 O   0  0  0  0  0  0  0  0  0  0  0  0
   10.4323   -5.3494   20.3516 C   0  0  0  0  0  0  0  0  0  0  0  0
    7.1156   -7.5454   16.8218 C   0  0  0  0  0  0  0  0  0  0  0  0
   10.3885   -4.4388   19.2773 C   0  0  0  0  0  0  0  0  0  0  0  0
    4.5160   -9.3822   15.0841 C   0  0  0  0  0  0  0  0  0  0  0  0
  1  3  4  0
  1 24  4  0
  2  6  4  0
  2 15  4  0
  3  5  4  0
  3  6  4  0
  4 21  4  0
  4 29  4  0
  5 15  4  0
  5 28  1  0
  6 16  4  0
  7 18  4  0
  7 26  4  0
  8 18  1  0
  8 19  4  0
  8 22  4  0
  9 12  4  0
  9 19  4  0
 10 12  4  0
 10 22  4  0
 11 20  4  0
 11 21  4  0
 12 23  1  0
 13 20  4  0
 13 29  4  0
 14 17  4  0
 14 28  4  0
 15 25  2  0
 16 27  4  0
 17 18  4  0
 20 27  1  0
 24 27  4  0
 26 28  4  0
M  END
$$$$

 Created by Python create_sdf_string function

 29 33  0  0  0  0  0  0  0  0999 V2000
    8.8270   -7.0288   18.4251 C   0  0  0  0  0  0  0  0  0  0  0  0
    9.1576   -4.6236   15.8860 O   0  0  0  0  0  0  0  0  0  0  0  0
    9.1509   -5.9108   17.7177 C   0  0  0  0  0  0  0  0  0  0  0  0
    3.6373   -9.5349   16.0582 N   0  0  0  0  0  0  0  0  0  0  0  0
    9.9275   -4.8001   18.0438 N   0  0  0  0  0  0  0  0  0  0  0  0
    8.5908   -5.7425   16.4412 C   0  0  0  0  0  0  0  0  0  0  0  0
   10.5993   -4.8981   21.6068 C   0  0  0  0  0  0  0  0  0  0  0  0
   10.4258   -3.0106   23.0998 C   0  0  0  0  0  0  0  0  0  0  0  0
   10.2148   -3.4364   25.4200 C   0  0  0  0  0  0  0  0  0  0  0  0
    9.7853   -1.1840   24.4927 C   0  0  0  0  0  0  0  0  0  0  0  0
    5.0276   -8.5227   17.5352 C   0  0  0  0  0  0  0  0  0  0  0  0
    9.8187   -2.0895   25.5800 C   0  0  0  0  0  0  0  0  0  0  0  0
    5.6473   -8.7216   15.3158 C   0  0  0  0  0  0  0  0  0  0  0  0
   10.7581   -3.1233   19.4720 N   0  0  0  0  0  0  0  0  0  0  0  0
    9.9571   -4.0573   16.8866 C   0  0  0  0  0  0  0  0  0  0  0  0
    7.6213   -6.5618   16.0087 C   0  0  0  0  0  0  0  0  0  0  0  0
   10.8583   -2.6527   20.7222 C   0  0  0  0  0  0  0  0  0  0  0  0
   10.6412   -3.5089   21.7936 C   0  0  0  0  0  0  0  0  0  0  0  0
   10.4972   -3.8968   24.1589 C   0  0  0  0  0  0  0  0  0  0  0  0
    5.9260   -8.2736   16.5517 C   0  0  0  0  0  0  0  0  0  0  0  0
    3.8816   -9.1166   17.2493 C   0  0  0  0  0  0  0  0  0  0  0  0
   10.1297   -1.6575   23.2324 C   0  0  0  0  0  0  0  0  0  0  0  0
    9.4684   -1.6929   26.7263 F   0  0  0  0  0  0  0  0  0  0  0  0
    7.7963   -7.7906   17.9837 C   0  0  0  0  0  0  0  0  0  0  0  0
   10.5884   -3.0725   16.7902 O   0  0  0  0  0  0  0  0  0  0  0  0
   10.4323   -5.3494   20.3516 C   0  0  0  0  0  0  0  0  0  0  0  0
    7.1156   -7.5454   16.8218 C   0  0  0  0  0  0  0  0  0  0  0  0
   10.3885   -4.4388   19.2773 C   0  0  0  0  0  0  0  0  0  0  0  0
    4.5160   -9.3822   15.0841 C   0  0  0  0  0  0  0  0  0  0  0  0
  1  3  4  0
  1 24  4  0
  2  6  4  0
  2 15  4  0
  3  5  4  0
  3  6  4  0
  4 21  4  0
  4 29  4  0
  5 15  4  0
  5 28  1  0
  6 16  4  0
  7 18  4  0
  7 26  4  0
  8 18  1  0
  8 19  4  0
  8 22  4  0
  9 12  4  0
  9 19  4  0
 10 12  4  0
 10 22  4  0
 11 20  4  0
 11 21  4  0
 12 23  1  0
 13 20  4  0
 13 29  4  0
 14 17  4  0
 14 28  4  0
 15 25  2  0
 16 27  4  0
 17 18  4  0
 20 27  1  0
 24 27  4  0
 26 28  4  0
M  END
$$$$

 Created by Python create_sdf_string function

 29 33  0  0  0  0  0  0  0  0999 V2000
    8.8270   -7.0288   18.4251 C   0  0  0  0  0  0  0  0  0  0  0  0
    9.1576   -4.6236   15.8860 O   0  0  0  0  0  0  0  0  0  0  0  0
    9.1509   -5.9108   17.7177 C   0  0  0  0  0  0  0  0  0  0  0  0
    3.6373   -9.5349   16.0582 N   0  0  0  0  0  0  0  0  0  0  0  0
    9.9275   -4.8001   18.0438 N   0  0  0  0  0  0  0  0  0  0  0  0
    8.5908   -5.7425   16.4412 C   0  0  0  0  0  0  0  0  0  0  0  0
   10.5993   -4.8981   21.6068 C   0  0  0  0  0  0  0  0  0  0  0  0
   10.4258   -3.0106   23.0998 C   0  0  0  0  0  0  0  0  0  0  0  0
   10.2148   -3.4364   25.4200 C   0  0  0  0  0  0  0  0  0  0  0  0
    9.7853   -1.1840   24.4927 C   0  0  0  0  0  0  0  0  0  0  0  0
    5.0276   -8.5227   17.5352 C   0  0  0  0  0  0  0  0  0  0  0  0
    9.8187   -2.0895   25.5800 C   0  0  0  0  0  0  0  0  0  0  0  0
    5.6473   -8.7216   15.3158 C   0  0  0  0  0  0  0  0  0  0  0  0
   10.7581   -3.1233   19.4720 N   0  0  0  0  0  0  0  0  0  0  0  0
    9.9571   -4.0573   16.8866 C   0  0  0  0  0  0  0  0  0  0  0  0
    7.6213   -6.5618   16.0087 C   0  0  0  0  0  0  0  0  0  0  0  0
   10.8583   -2.6527   20.7222 C   0  0  0  0  0  0  0  0  0  0  0  0
   10.6412   -3.5089   21.7936 C   0  0  0  0  0  0  0  0  0  0  0  0
   10.4972   -3.8968   24.1589 C   0  0  0  0  0  0  0  0  0  0  0  0
    5.9260   -8.2736   16.5517 C   0  0  0  0  0  0  0  0  0  0  0  0
    3.8816   -9.1166   17.2493 C   0  0  0  0  0  0  0  0  0  0  0  0
   10.1297   -1.6575   23.2324 C   0  0  0  0  0  0  0  0  0  0  0  0
    9.4684   -1.6929   26.7263 F   0  0  0  0  0  0  0  0  0  0  0  0
    7.7963   -7.7906   17.9837 C   0  0  0  0  0  0  0  0  0  0  0  0
   10.5884   -3.0725   16.7902 O   0  0  0  0  0  0  0  0  0  0  0  0
   10.4323   -5.3494   20.3516 C   0  0  0  0  0  0  0  0  0  0  0  0
    7.1156   -7.5454   16.8218 C   0  0  0  0  0  0  0  0  0  0  0  0
   10.3885   -4.4388   19.2773 C   0  0  0  0  0  0  0  0  0  0  0  0
    4.5160   -9.3822   15.0841 C   0  0  0  0  0  0  0  0  0  0  0  0
  1  3  4  0
  1 24  4  0
  2  6  4  0
  2 15  4  0
  3  5  4  0
  3  6  4  0
  4 21  4  0
  4 29  4  0
  5 15  4  0
  5 28  1  0
  6 16  4  0
  7 18  4  0
  7 26  4  0
  8 18  1  0
  8 19  4  0
  8 22  4  0
  9 12  4  0
  9 19  4  0
 10 12  4  0
 10 22  4  0
 11 20  4  0
 11 21  4  0
 12 23  1  0
 13 20  4  0
 13 29  4  0
 14 17  4  0
 14 28  4  0
 15 25  2  0
 16 27  4  0
 17 18  4  0
 20 27  1  0
 24 27  4  0
 26 28  4  0
M  END
$$$$

 Created by Python create_sdf_string function

 29 33  0  0  0  0  0  0  0  0999 V2000
    8.8270   -7.0288   18.4251 C   0  0  0  0  0  0  0  0  0  0  0  0
    9.1576   -4.6236   15.8860 O   0  0  0  0  0  0  0  0  0  0  0  0
    9.1509   -5.9108   17.7177 C   0  0  0  0  0  0  0  0  0  0  0  0
    3.6373   -9.5349   16.0582 N   0  0  0  0  0  0  0  0  0  0  0  0
    9.9275   -4.8001   18.0438 N   0  0  0  0  0  0  0  0  0  0  0  0
    8.5908   -5.7425   16.4412 C   0  0  0  0  0  0  0  0  0  0  0  0
   10.5993   -4.8981   21.6068 C   0  0  0  0  0  0  0  0  0  0  0  0
   10.4258   -3.0106   23.0998 C   0  0  0  0  0  0  0  0  0  0  0  0
   10.2148   -3.4364   25.4200 C   0  0  0  0  0  0  0  0  0  0  0  0
    9.7853   -1.1840   24.4927 C   0  0  0  0  0  0  0  0  0  0  0  0
    5.0276   -8.5227   17.5352 C   0  0  0  0  0  0  0  0  0  0  0  0
    9.8187   -2.0895   25.5800 C   0  0  0  0  0  0  0  0  0  0  0  0
    5.6473   -8.7216   15.3158 C   0  0  0  0  0  0  0  0  0  0  0  0
   10.7581   -3.1233   19.4720 N   0  0  0  0  0  0  0  0  0  0  0  0
    9.9571   -4.0573   16.8866 C   0  0  0  0  0  0  0  0  0  0  0  0
    7.6213   -6.5618   16.0087 C   0  0  0  0  0  0  0  0  0  0  0  0
   10.8583   -2.6527   20.7222 C   0  0  0  0  0  0  0  0  0  0  0  0
   10.6412   -3.5089   21.7936 C   0  0  0  0  0  0  0  0  0  0  0  0
   10.4972   -3.8968   24.1589 C   0  0  0  0  0  0  0  0  0  0  0  0
    5.9260   -8.2736   16.5517 C   0  0  0  0  0  0  0  0  0  0  0  0
    3.8816   -9.1166   17.2493 C   0  0  0  0  0  0  0  0  0  0  0  0
   10.1297   -1.6575   23.2324 C   0  0  0  0  0  0  0  0  0  0  0  0
    9.4684   -1.6929   26.7263 F   0  0  0  0  0  0  0  0  0  0  0  0
    7.7963   -7.7906   17.9837 C   0  0  0  0  0  0  0  0  0  0  0  0
   10.5884   -3.0725   16.7902 O   0  0  0  0  0  0  0  0  0  0  0  0
   10.4323   -5.3494   20.3516 C   0  0  0  0  0  0  0  0  0  0  0  0
    7.1156   -7.5454   16.8218 C   0  0  0  0  0  0  0  0  0  0  0  0
   10.3885   -4.4388   19.2773 C   0  0  0  0  0  0  0  0  0  0  0  0
    4.5160   -9.3822   15.0841 C   0  0  0  0  0  0  0  0  0  0  0  0
  1  3  4  0
  1 24  4  0
  2  6  4  0
  2 15  4  0
  3  5  4  0
  3  6  4  0
  4 21  4  0
  4 29  4  0
  5 15  4  0
  5 28  1  0
  6 16  4  0
  7 18  4  0
  7 26  4  0
  8 18  1  0
  8 19  4  0
  8 22  4  0
  9 12  4  0
  9 19  4  0
 10 12  4  0
 10 22  4  0
 11 20  4  0
 11 21  4  0
 12 23  1  0
 13 20  4  0
 13 29  4  0
 14 17  4  0
 14 28  4  0
 15 25  2  0
 16 27  4  0
 17 18  4  0
 20 27  1  0
 24 27  4  0
 26 28  4  0
M  END
$$$$

 Created by Python create_sdf_string function

 29 33  0  0  0  0  0  0  0  0999 V2000
    8.8270   -7.0288   18.4251 C   0  0  0  0  0  0  0  0  0  0  0  0
    9.1576   -4.6236   15.8860 O   0  0  0  0  0  0  0  0  0  0  0  0
    9.1509   -5.9108   17.7177 C   0  0  0  0  0  0  0  0  0  0  0  0
    3.6373   -9.5349   16.0582 N   0  0  0  0  0  0  0  0  0  0  0  0
    9.9275   -4.8001   18.0438 N   0  0  0  0  0  0  0  0  0  0  0  0
    8.5908   -5.7425   16.4412 C   0  0  0  0  0  0  0  0  0  0  0  0
   10.5993   -4.8981   21.6068 C   0  0  0  0  0  0  0  0  0  0  0  0
   10.4258   -3.0106   23.0998 C   0  0  0  0  0  0  0  0  0  0  0  0
   10.2148   -3.4364   25.4200 C   0  0  0  0  0  0  0  0  0  0  0  0
    9.7853   -1.1840   24.4927 C   0  0  0  0  0  0  0  0  0  0  0  0
    5.0276   -8.5227   17.5352 C   0  0  0  0  0  0  0  0  0  0  0  0
    9.8187   -2.0895   25.5800 C   0  0  0  0  0  0  0  0  0  0  0  0
    5.6473   -8.7216   15.3158 C   0  0  0  0  0  0  0  0  0  0  0  0
   10.7581   -3.1233   19.4720 N   0  0  0  0  0  0  0  0  0  0  0  0
    9.9571   -4.0573   16.8866 C   0  0  0  0  0  0  0  0  0  0  0  0
    7.6213   -6.5618   16.0087 C   0  0  0  0  0  0  0  0  0  0  0  0
   10.8583   -2.6527   20.7222 C   0  0  0  0  0  0  0  0  0  0  0  0
   10.6412   -3.5089   21.7936 C   0  0  0  0  0  0  0  0  0  0  0  0
   10.4972   -3.8968   24.1589 C   0  0  0  0  0  0  0  0  0  0  0  0
    5.9260   -8.2736   16.5517 C   0  0  0  0  0  0  0  0  0  0  0  0
    3.8816   -9.1166   17.2493 C   0  0  0  0  0  0  0  0  0  0  0  0
   10.1297   -1.6575   23.2324 C   0  0  0  0  0  0  0  0  0  0  0  0
    9.4684   -1.6929   26.7263 F   0  0  0  0  0  0  0  0  0  0  0  0
    7.7963   -7.7906   17.9837 C   0  0  0  0  0  0  0  0  0  0  0  0
   10.5884   -3.0725   16.7902 O   0  0  0  0  0  0  0  0  0  0  0  0
   10.4323   -5.3494   20.3516 C   0  0  0  0  0  0  0  0  0  0  0  0
    7.1156   -7.5454   16.8218 C   0  0  0  0  0  0  0  0  0  0  0  0
   10.3885   -4.4388   19.2773 C   0  0  0  0  0  0  0  0  0  0  0  0
    4.5160   -9.3822   15.0841 C   0  0  0  0  0  0  0  0  0  0  0  0
  1  3  4  0
  1 24  4  0
  2  6  4  0
  2 15  4  0
  3  5  4  0
  3  6  4  0
  4 21  4  0
  4 29  4  0
  5 15  4  0
  5 28  1  0
  6 16  4  0
  7 18  4  0
  7 26  4  0
  8 18  1  0
  8 19  4  0
  8 22  4  0
  9 12  4  0
  9 19  4  0
 10 12  4  0
 10 22  4  0
 11 20  4  0
 11 21  4  0
 12 23  1  0
 13 20  4  0
 13 29  4  0
 14 17  4  0
 14 28  4  0
 15 25  2  0
 16 27  4  0
 17 18  4  0
 20 27  1  0
 24 27  4  0
 26 28  4  0
M  END
$$$$

 Created by Python create_sdf_string function

 29 33  0  0  0  0  0  0  0  0999 V2000
    8.8270   -7.0288   18.4251 C   0  0  0  0  0  0  0  0  0  0  0  0
    9.1576   -4.6236   15.8860 O   0  0  0  0  0  0  0  0  0  0  0  0
    9.1509   -5.9108   17.7177 C   0  0  0  0  0  0  0  0  0  0  0  0
    3.6373   -9.5349   16.0582 N   0  0  0  0  0  0  0  0  0  0  0  0
    9.9275   -4.8001   18.0438 N   0  0  0  0  0  0  0  0  0  0  0  0
    8.5908   -5.7425   16.4412 C   0  0  0  0  0  0  0  0  0  0  0  0
   10.5993   -4.8981   21.6068 C   0  0  0  0  0  0  0  0  0  0  0  0
   10.4258   -3.0106   23.0998 C   0  0  0  0  0  0  0  0  0  0  0  0
   10.2148   -3.4364   25.4200 C   0  0  0  0  0  0  0  0  0  0  0  0
    9.7853   -1.1840   24.4927 C   0  0  0  0  0  0  0  0  0  0  0  0
    5.0276   -8.5227   17.5352 C   0  0  0  0  0  0  0  0  0  0  0  0
    9.8187   -2.0895   25.5800 C   0  0  0  0  0  0  0  0  0  0  0  0
    5.6473   -8.7216   15.3158 C   0  0  0  0  0  0  0  0  0  0  0  0
   10.7581   -3.1233   19.4720 N   0  0  0  0  0  0  0  0  0  0  0  0
    9.9571   -4.0573   16.8866 C   0  0  0  0  0  0  0  0  0  0  0  0
    7.6213   -6.5618   16.0087 C   0  0  0  0  0  0  0  0  0  0  0  0
   10.8583   -2.6527   20.7222 C   0  0  0  0  0  0  0  0  0  0  0  0
   10.6412   -3.5089   21.7936 C   0  0  0  0  0  0  0  0  0  0  0  0
   10.4972   -3.8968   24.1589 C   0  0  0  0  0  0  0  0  0  0  0  0
    5.9260   -8.2736   16.5517 C   0  0  0  0  0  0  0  0  0  0  0  0
    3.8816   -9.1166   17.2493 C   0  0  0  0  0  0  0  0  0  0  0  0
   10.1297   -1.6575   23.2324 C   0  0  0  0  0  0  0  0  0  0  0  0
    9.4684   -1.6929   26.7263 F   0  0  0  0  0  0  0  0  0  0  0  0
    7.7963   -7.7906   17.9837 C   0  0  0  0  0  0  0  0  0  0  0  0
   10.5884   -3.0725   16.7902 O   0  0  0  0  0  0  0  0  0  0  0  0
   10.4323   -5.3494   20.3516 C   0  0  0  0  0  0  0  0  0  0  0  0
    7.1156   -7.5454   16.8218 C   0  0  0  0  0  0  0  0  0  0  0  0
   10.3885   -4.4388   19.2773 C   0  0  0  0  0  0  0  0  0  0  0  0
    4.5160   -9.3822   15.0841 C   0  0  0  0  0  0  0  0  0  0  0  0
  1  3  4  0
  1 24  4  0
  2  6  4  0
  2 15  4  0
  3  5  4  0
  3  6  4  0
  4 21  4  0
  4 29  4  0
  5 15  4  0
  5 28  1  0
  6 16  4  0
  7 18  4  0
  7 26  4  0
  8 18  1  0
  8 19  4  0
  8 22  4  0
  9 12  4  0
  9 19  4  0
 10 12  4  0
 10 22  4  0
 11 20  4  0
 11 21  4  0
 12 23  1  0
 13 20  4  0
 13 29  4  0
 14 17  4  0
 14 28  4  0
 15 25  2  0
 16 27  4  0
 17 18  4  0
 20 27  1  0
 24 27  4  0
 26 28  4  0
M  END
$$$$

 Created by Python create_sdf_string function

 29 33  0  0  0  0  0  0  0  0999 V2000
    8.8270   -7.0288   18.4251 C   0  0  0  0  0  0  0  0  0  0  0  0
    9.1576   -4.6236   15.8860 O   0  0  0  0  0  0  0  0  0  0  0  0
    9.1509   -5.9108   17.7177 C   0  0  0  0  0  0  0  0  0  0  0  0
    3.6373   -9.5349   16.0582 N   0  0  0  0  0  0  0  0  0  0  0  0
    9.9275   -4.8001   18.0438 N   0  0  0  0  0  0  0  0  0  0  0  0
    8.5908   -5.7425   16.4412 C   0  0  0  0  0  0  0  0  0  0  0  0
   10.5993   -4.8981   21.6068 C   0  0  0  0  0  0  0  0  0  0  0  0
   10.4258   -3.0106   23.0998 C   0  0  0  0  0  0  0  0  0  0  0  0
   10.2148   -3.4364   25.4200 C   0  0  0  0  0  0  0  0  0  0  0  0
    9.7853   -1.1840   24.4927 C   0  0  0  0  0  0  0  0  0  0  0  0
    5.0276   -8.5227   17.5352 C   0  0  0  0  0  0  0  0  0  0  0  0
    9.8187   -2.0895   25.5800 C   0  0  0  0  0  0  0  0  0  0  0  0
    5.6473   -8.7216   15.3158 C   0  0  0  0  0  0  0  0  0  0  0  0
   10.7581   -3.1233   19.4720 N   0  0  0  0  0  0  0  0  0  0  0  0
    9.9571   -4.0573   16.8866 C   0  0  0  0  0  0  0  0  0  0  0  0
    7.6213   -6.5618   16.0087 C   0  0  0  0  0  0  0  0  0  0  0  0
   10.8583   -2.6527   20.7222 C   0  0  0  0  0  0  0  0  0  0  0  0
   10.6412   -3.5089   21.7936 C   0  0  0  0  0  0  0  0  0  0  0  0
   10.4972   -3.8968   24.1589 C   0  0  0  0  0  0  0  0  0  0  0  0
    5.9260   -8.2736   16.5517 C   0  0  0  0  0  0  0  0  0  0  0  0
    3.8816   -9.1166   17.2493 C   0  0  0  0  0  0  0  0  0  0  0  0
   10.1297   -1.6575   23.2324 C   0  0  0  0  0  0  0  0  0  0  0  0
    9.4684   -1.6929   26.7263 F   0  0  0  0  0  0  0  0  0  0  0  0
    7.7963   -7.7906   17.9837 C   0  0  0  0  0  0  0  0  0  0  0  0
   10.5884   -3.0725   16.7902 O   0  0  0  0  0  0  0  0  0  0  0  0
   10.4323   -5.3494   20.3516 C   0  0  0  0  0  0  0  0  0  0  0  0
    7.1156   -7.5454   16.8218 C   0  0  0  0  0  0  0  0  0  0  0  0
   10.3885   -4.4388   19.2773 C   0  0  0  0  0  0  0  0  0  0  0  0
    4.5160   -9.3822   15.0841 C   0  0  0  0  0  0  0  0  0  0  0  0
  1  3  4  0
  1 24  4  0
  2  6  4  0
  2 15  4  0
  3  5  4  0
  3  6  4  0
  4 21  4  0
  4 29  4  0
  5 15  4  0
  5 28  1  0
  6 16  4  0
  7 18  4  0
  7 26  4  0
  8 18  1  0
  8 19  4  0
  8 22  4  0
  9 12  4  0
  9 19  4  0
 10 12  4  0
 10 22  4  0
 11 20  4  0
 11 21  4  0
 12 23  1  0
 13 20  4  0
 13 29  4  0
 14 17  4  0
 14 28  4  0
 15 25  2  0
 16 27  4  0
 17 18  4  0
 20 27  1  0
 24 27  4  0
 26 28  4  0
M  END
$$$$

 Created by Python create_sdf_string function

 29 33  0  0  0  0  0  0  0  0999 V2000
    8.8270   -7.0288   18.4251 C   0  0  0  0  0  0  0  0  0  0  0  0
    9.1576   -4.6236   15.8860 O   0  0  0  0  0  0  0  0  0  0  0  0
    9.1509   -5.9108   17.7177 C   0  0  0  0  0  0  0  0  0  0  0  0
    3.6373   -9.5349   16.0582 N   0  0  0  0  0  0  0  0  0  0  0  0
    9.9275   -4.8001   18.0438 N   0  0  0  0  0  0  0  0  0  0  0  0
    8.5908   -5.7425   16.4412 C   0  0  0  0  0  0  0  0  0  0  0  0
   10.5993   -4.8981   21.6068 C   0  0  0  0  0  0  0  0  0  0  0  0
   10.4258   -3.0106   23.0998 C   0  0  0  0  0  0  0  0  0  0  0  0
   10.2148   -3.4364   25.4200 C   0  0  0  0  0  0  0  0  0  0  0  0
    9.7853   -1.1840   24.4927 C   0  0  0  0  0  0  0  0  0  0  0  0
    5.0276   -8.5227   17.5352 C   0  0  0  0  0  0  0  0  0  0  0  0
    9.8187   -2.0895   25.5800 C   0  0  0  0  0  0  0  0  0  0  0  0
    5.6473   -8.7216   15.3158 C   0  0  0  0  0  0  0  0  0  0  0  0
   10.7581   -3.1233   19.4720 N   0  0  0  0  0  0  0  0  0  0  0  0
    9.9571   -4.0573   16.8866 C   0  0  0  0  0  0  0  0  0  0  0  0
    7.6213   -6.5618   16.0087 C   0  0  0  0  0  0  0  0  0  0  0  0
   10.8583   -2.6527   20.7222 C   0  0  0  0  0  0  0  0  0  0  0  0
   10.6412   -3.5089   21.7936 C   0  0  0  0  0  0  0  0  0  0  0  0
   10.4972   -3.8968   24.1589 C   0  0  0  0  0  0  0  0  0  0  0  0
    5.9260   -8.2736   16.5517 C   0  0  0  0  0  0  0  0  0  0  0  0
    3.8816   -9.1166   17.2493 C   0  0  0  0  0  0  0  0  0  0  0  0
   10.1297   -1.6575   23.2324 C   0  0  0  0  0  0  0  0  0  0  0  0
    9.4684   -1.6929   26.7263 F   0  0  0  0  0  0  0  0  0  0  0  0
    7.7963   -7.7906   17.9837 C   0  0  0  0  0  0  0  0  0  0  0  0
   10.5884   -3.0725   16.7902 O   0  0  0  0  0  0  0  0  0  0  0  0
   10.4323   -5.3494   20.3516 C   0  0  0  0  0  0  0  0  0  0  0  0
    7.1156   -7.5454   16.8218 C   0  0  0  0  0  0  0  0  0  0  0  0
   10.3885   -4.4388   19.2773 C   0  0  0  0  0  0  0  0  0  0  0  0
    4.5160   -9.3822   15.0841 C   0  0  0  0  0  0  0  0  0  0  0  0
  1  3  4  0
  1 24  4  0
  2  6  4  0
  2 15  4  0
  3  5  4  0
  3  6  4  0
  4 21  4  0
  4 29  4  0
  5 15  4  0
  5 28  1  0
  6 16  4  0
  7 18  4  0
  7 26  4  0
  8 18  1  0
  8 19  4  0
  8 22  4  0
  9 12  4  0
  9 19  4  0
 10 12  4  0
 10 22  4  0
 11 20  4  0
 11 21  4  0
 12 23  1  0
 13 20  4  0
 13 29  4  0
 14 17  4  0
 14 28  4  0
 15 25  2  0
 16 27  4  0
 17 18  4  0
 20 27  1  0
 24 27  4  0
 26 28  4  0
M  END
$$$$

 Created by Python create_sdf_string function

 29 33  0  0  0  0  0  0  0  0999 V2000
    8.8270   -7.0288   18.4251 C   0  0  0  0  0  0  0  0  0  0  0  0
    9.1576   -4.6236   15.8860 O   0  0  0  0  0  0  0  0  0  0  0  0
    9.1509   -5.9108   17.7177 C   0  0  0  0  0  0  0  0  0  0  0  0
    3.6373   -9.5349   16.0582 N   0  0  0  0  0  0  0  0  0  0  0  0
    9.9275   -4.8001   18.0438 N   0  0  0  0  0  0  0  0  0  0  0  0
    8.5908   -5.7425   16.4412 C   0  0  0  0  0  0  0  0  0  0  0  0
   10.5993   -4.8981   21.6068 C   0  0  0  0  0  0  0  0  0  0  0  0
   10.4258   -3.0106   23.0998 C   0  0  0  0  0  0  0  0  0  0  0  0
   10.2148   -3.4364   25.4200 C   0  0  0  0  0  0  0  0  0  0  0  0
    9.7853   -1.1840   24.4927 C   0  0  0  0  0  0  0  0  0  0  0  0
    5.0276   -8.5227   17.5352 C   0  0  0  0  0  0  0  0  0  0  0  0
    9.8187   -2.0895   25.5800 C   0  0  0  0  0  0  0  0  0  0  0  0
    5.6473   -8.7216   15.3158 C   0  0  0  0  0  0  0  0  0  0  0  0
   10.7581   -3.1233   19.4720 N   0  0  0  0  0  0  0  0  0  0  0  0
    9.9571   -4.0573   16.8866 C   0  0  0  0  0  0  0  0  0  0  0  0
    7.6213   -6.5618   16.0087 C   0  0  0  0  0  0  0  0  0  0  0  0
   10.8583   -2.6527   20.7222 C   0  0  0  0  0  0  0  0  0  0  0  0
   10.6412   -3.5089   21.7936 C   0  0  0  0  0  0  0  0  0  0  0  0
   10.4972   -3.8968   24.1589 C   0  0  0  0  0  0  0  0  0  0  0  0
    5.9260   -8.2736   16.5517 C   0  0  0  0  0  0  0  0  0  0  0  0
    3.8816   -9.1166   17.2493 C   0  0  0  0  0  0  0  0  0  0  0  0
   10.1297   -1.6575   23.2324 C   0  0  0  0  0  0  0  0  0  0  0  0
    9.4684   -1.6929   26.7263 F   0  0  0  0  0  0  0  0  0  0  0  0
    7.7963   -7.7906   17.9837 C   0  0  0  0  0  0  0  0  0  0  0  0
   10.5884   -3.0725   16.7902 O   0  0  0  0  0  0  0  0  0  0  0  0
   10.4323   -5.3494   20.3516 C   0  0  0  0  0  0  0  0  0  0  0  0
    7.1156   -7.5454   16.8218 C   0  0  0  0  0  0  0  0  0  0  0  0
   10.3885   -4.4388   19.2773 C   0  0  0  0  0  0  0  0  0  0  0  0
    4.5160   -9.3822   15.0841 C   0  0  0  0  0  0  0  0  0  0  0  0
  1  3  4  0
  1 24  4  0
  2  6  4  0
  2 15  4  0
  3  5  4  0
  3  6  4  0
  4 21  4  0
  4 29  4  0
  5 15  4  0
  5 28  1  0
  6 16  4  0
  7 18  4  0
  7 26  4  0
  8 18  1  0
  8 19  4  0
  8 22  4  0
  9 12  4  0
  9 19  4  0
 10 12  4  0
 10 22  4  0
 11 20  4  0
 11 21  4  0
 12 23  1  0
 13 20  4  0
 13 29  4  0
 14 17  4  0
 14 28  4  0
 15 25  2  0
 16 27  4  0
 17 18  4  0
 20 27  1  0
 24 27  4  0
 26 28  4  0
M  END
$$$$

 Created by Python create_sdf_string function

 29 33  0  0  0  0  0  0  0  0999 V2000
    8.8270   -7.0288   18.4251 C   0  0  0  0  0  0  0  0  0  0  0  0
    9.1576   -4.6236   15.8860 O   0  0  0  0  0  0  0  0  0  0  0  0
    9.1509   -5.9108   17.7177 C   0  0  0  0  0  0  0  0  0  0  0  0
    3.6373   -9.5349   16.0582 N   0  0  0  0  0  0  0  0  0  0  0  0
    9.9275   -4.8001   18.0438 N   0  0  0  0  0  0  0  0  0  0  0  0
    8.5908   -5.7425   16.4412 C   0  0  0  0  0  0  0  0  0  0  0  0
   10.5993   -4.8981   21.6068 C   0  0  0  0  0  0  0  0  0  0  0  0
   10.4258   -3.0106   23.0998 C   0  0  0  0  0  0  0  0  0  0  0  0
   10.2148   -3.4364   25.4200 C   0  0  0  0  0  0  0  0  0  0  0  0
    9.7853   -1.1840   24.4927 C   0  0  0  0  0  0  0  0  0  0  0  0
    5.0276   -8.5227   17.5352 C   0  0  0  0  0  0  0  0  0  0  0  0
    9.8187   -2.0895   25.5800 C   0  0  0  0  0  0  0  0  0  0  0  0
    5.6473   -8.7216   15.3158 C   0  0  0  0  0  0  0  0  0  0  0  0
   10.7581   -3.1233   19.4720 N   0  0  0  0  0  0  0  0  0  0  0  0
    9.9571   -4.0573   16.8866 C   0  0  0  0  0  0  0  0  0  0  0  0
    7.6213   -6.5618   16.0087 C   0  0  0  0  0  0  0  0  0  0  0  0
   10.8583   -2.6527   20.7222 C   0  0  0  0  0  0  0  0  0  0  0  0
   10.6412   -3.5089   21.7936 C   0  0  0  0  0  0  0  0  0  0  0  0
   10.4972   -3.8968   24.1589 C   0  0  0  0  0  0  0  0  0  0  0  0
    5.9260   -8.2736   16.5517 C   0  0  0  0  0  0  0  0  0  0  0  0
    3.8816   -9.1166   17.2493 C   0  0  0  0  0  0  0  0  0  0  0  0
   10.1297   -1.6575   23.2324 C   0  0  0  0  0  0  0  0  0  0  0  0
    9.4684   -1.6929   26.7263 F   0  0  0  0  0  0  0  0  0  0  0  0
    7.7963   -7.7906   17.9837 C   0  0  0  0  0  0  0  0  0  0  0  0
   10.5884   -3.0725   16.7902 O   0  0  0  0  0  0  0  0  0  0  0  0
   10.4323   -5.3494   20.3516 C   0  0  0  0  0  0  0  0  0  0  0  0
    7.1156   -7.5454   16.8218 C   0  0  0  0  0  0  0  0  0  0  0  0
   10.3885   -4.4388   19.2773 C   0  0  0  0  0  0  0  0  0  0  0  0
    4.5160   -9.3822   15.0841 C   0  0  0  0  0  0  0  0  0  0  0  0
  1  3  4  0
  1 24  4  0
  2  6  4  0
  2 15  4  0
  3  5  4  0
  3  6  4  0
  4 21  4  0
  4 29  4  0
  5 15  4  0
  5 28  1  0
  6 16  4  0
  7 18  4  0
  7 26  4  0
  8 18  1  0
  8 19  4  0
  8 22  4  0
  9 12  4  0
  9 19  4  0
 10 12  4  0
 10 22  4  0
 11 20  4  0
 11 21  4  0
 12 23  1  0
 13 20  4  0
 13 29  4  0
 14 17  4  0
 14 28  4  0
 15 25  2  0
 16 27  4  0
 17 18  4  0
 20 27  1  0
 24 27  4  0
 26 28  4  0
M  END
$$$$

 Created by Python create_sdf_string function

 29 33  0  0  0  0  0  0  0  0999 V2000
    8.8270   -7.0288   18.4251 C   0  0  0  0  0  0  0  0  0  0  0  0
    9.1576   -4.6236   15.8860 O   0  0  0  0  0  0  0  0  0  0  0  0
    9.1509   -5.9108   17.7177 C   0  0  0  0  0  0  0  0  0  0  0  0
    3.6373   -9.5349   16.0582 N   0  0  0  0  0  0  0  0  0  0  0  0
    9.9275   -4.8001   18.0438 N   0  0  0  0  0  0  0  0  0  0  0  0
    8.5908   -5.7425   16.4412 C   0  0  0  0  0  0  0  0  0  0  0  0
   10.5993   -4.8981   21.6068 C   0  0  0  0  0  0  0  0  0  0  0  0
   10.4258   -3.0106   23.0998 C   0  0  0  0  0  0  0  0  0  0  0  0
   10.2148   -3.4364   25.4200 C   0  0  0  0  0  0  0  0  0  0  0  0
    9.7853   -1.1840   24.4927 C   0  0  0  0  0  0  0  0  0  0  0  0
    5.0276   -8.5227   17.5352 C   0  0  0  0  0  0  0  0  0  0  0  0
    9.8187   -2.0895   25.5800 C   0  0  0  0  0  0  0  0  0  0  0  0
    5.6473   -8.7216   15.3158 C   0  0  0  0  0  0  0  0  0  0  0  0
   10.7581   -3.1233   19.4720 N   0  0  0  0  0  0  0  0  0  0  0  0
    9.9571   -4.0573   16.8866 C   0  0  0  0  0  0  0  0  0  0  0  0
    7.6213   -6.5618   16.0087 C   0  0  0  0  0  0  0  0  0  0  0  0
   10.8583   -2.6527   20.7222 C   0  0  0  0  0  0  0  0  0  0  0  0
   10.6412   -3.5089   21.7936 C   0  0  0  0  0  0  0  0  0  0  0  0
   10.4972   -3.8968   24.1589 C   0  0  0  0  0  0  0  0  0  0  0  0
    5.9260   -8.2736   16.5517 C   0  0  0  0  0  0  0  0  0  0  0  0
    3.8816   -9.1166   17.2493 C   0  0  0  0  0  0  0  0  0  0  0  0
   10.1297   -1.6575   23.2324 C   0  0  0  0  0  0  0  0  0  0  0  0
    9.4684   -1.6929   26.7263 F   0  0  0  0  0  0  0  0  0  0  0  0
    7.7963   -7.7906   17.9837 C   0  0  0  0  0  0  0  0  0  0  0  0
   10.5884   -3.0725   16.7902 O   0  0  0  0  0  0  0  0  0  0  0  0
   10.4323   -5.3494   20.3516 C   0  0  0  0  0  0  0  0  0  0  0  0
    7.1156   -7.5454   16.8218 C   0  0  0  0  0  0  0  0  0  0  0  0
   10.3885   -4.4388   19.2773 C   0  0  0  0  0  0  0  0  0  0  0  0
    4.5160   -9.3822   15.0841 C   0  0  0  0  0  0  0  0  0  0  0  0
  1  3  4  0
  1 24  4  0
  2  6  4  0
  2 15  4  0
  3  5  4  0
  3  6  4  0
  4 21  4  0
  4 29  4  0
  5 15  4  0
  5 28  1  0
  6 16  4  0
  7 18  4  0
  7 26  4  0
  8 18  1  0
  8 19  4  0
  8 22  4  0
  9 12  4  0
  9 19  4  0
 10 12  4  0
 10 22  4  0
 11 20  4  0
 11 21  4  0
 12 23  1  0
 13 20  4  0
 13 29  4  0
 14 17  4  0
 14 28  4  0
 15 25  2  0
 16 27  4  0
 17 18  4  0
 20 27  1  0
 24 27  4  0
 26 28  4  0
M  END
$$$$

 Created by Python create_sdf_string function

 29 33  0  0  0  0  0  0  0  0999 V2000
    8.8270   -7.0288   18.4251 C   0  0  0  0  0  0  0  0  0  0  0  0
    9.1576   -4.6236   15.8860 O   0  0  0  0  0  0  0  0  0  0  0  0
    9.1509   -5.9108   17.7177 C   0  0  0  0  0  0  0  0  0  0  0  0
    3.6373   -9.5349   16.0582 N   0  0  0  0  0  0  0  0  0  0  0  0
    9.9275   -4.8001   18.0438 N   0  0  0  0  0  0  0  0  0  0  0  0
    8.5908   -5.7425   16.4412 C   0  0  0  0  0  0  0  0  0  0  0  0
   10.5993   -4.8981   21.6068 C   0  0  0  0  0  0  0  0  0  0  0  0
   10.4258   -3.0106   23.0998 C   0  0  0  0  0  0  0  0  0  0  0  0
   10.2148   -3.4364   25.4200 C   0  0  0  0  0  0  0  0  0  0  0  0
    9.7853   -1.1840   24.4927 C   0  0  0  0  0  0  0  0  0  0  0  0
    5.0276   -8.5227   17.5352 C   0  0  0  0  0  0  0  0  0  0  0  0
    9.8187   -2.0895   25.5800 C   0  0  0  0  0  0  0  0  0  0  0  0
    5.6473   -8.7216   15.3158 C   0  0  0  0  0  0  0  0  0  0  0  0
   10.7581   -3.1233   19.4720 N   0  0  0  0  0  0  0  0  0  0  0  0
    9.9571   -4.0573   16.8866 C   0  0  0  0  0  0  0  0  0  0  0  0
    7.6213   -6.5618   16.0087 C   0  0  0  0  0  0  0  0  0  0  0  0
   10.8583   -2.6527   20.7222 C   0  0  0  0  0  0  0  0  0  0  0  0
   10.6412   -3.5089   21.7936 C   0  0  0  0  0  0  0  0  0  0  0  0
   10.4972   -3.8968   24.1589 C   0  0  0  0  0  0  0  0  0  0  0  0
    5.9260   -8.2736   16.5517 C   0  0  0  0  0  0  0  0  0  0  0  0
    3.8816   -9.1166   17.2493 C   0  0  0  0  0  0  0  0  0  0  0  0
   10.1297   -1.6575   23.2324 C   0  0  0  0  0  0  0  0  0  0  0  0
    9.4684   -1.6929   26.7263 F   0  0  0  0  0  0  0  0  0  0  0  0
    7.7963   -7.7906   17.9837 C   0  0  0  0  0  0  0  0  0  0  0  0
   10.5884   -3.0725   16.7902 O   0  0  0  0  0  0  0  0  0  0  0  0
   10.4323   -5.3494   20.3516 C   0  0  0  0  0  0  0  0  0  0  0  0
    7.1156   -7.5454   16.8218 C   0  0  0  0  0  0  0  0  0  0  0  0
   10.3885   -4.4388   19.2773 C   0  0  0  0  0  0  0  0  0  0  0  0
    4.5160   -9.3822   15.0841 C   0  0  0  0  0  0  0  0  0  0  0  0
  1  3  4  0
  1 24  4  0
  2  6  4  0
  2 15  4  0
  3  5  4  0
  3  6  4  0
  4 21  4  0
  4 29  4  0
  5 15  4  0
  5 28  1  0
  6 16  4  0
  7 18  4  0
  7 26  4  0
  8 18  1  0
  8 19  4  0
  8 22  4  0
  9 12  4  0
  9 19  4  0
 10 12  4  0
 10 22  4  0
 11 20  4  0
 11 21  4  0
 12 23  1  0
 13 20  4  0
 13 29  4  0
 14 17  4  0
 14 28  4  0
 15 25  2  0
 16 27  4  0
 17 18  4  0
 20 27  1  0
 24 27  4  0
 26 28  4  0
M  END
$$$$

 Created by Python create_sdf_string function

 29 33  0  0  0  0  0  0  0  0999 V2000
    8.8270   -7.0288   18.4251 C   0  0  0  0  0  0  0  0  0  0  0  0
    9.1576   -4.6236   15.8860 O   0  0  0  0  0  0  0  0  0  0  0  0
    9.1509   -5.9108   17.7177 C   0  0  0  0  0  0  0  0  0  0  0  0
    3.6373   -9.5349   16.0582 N   0  0  0  0  0  0  0  0  0  0  0  0
    9.9275   -4.8001   18.0438 N   0  0  0  0  0  0  0  0  0  0  0  0
    8.5908   -5.7425   16.4412 C   0  0  0  0  0  0  0  0  0  0  0  0
   10.5993   -4.8981   21.6068 C   0  0  0  0  0  0  0  0  0  0  0  0
   10.4258   -3.0106   23.0998 C   0  0  0  0  0  0  0  0  0  0  0  0
   10.2148   -3.4364   25.4200 C   0  0  0  0  0  0  0  0  0  0  0  0
    9.7853   -1.1840   24.4927 C   0  0  0  0  0  0  0  0  0  0  0  0
    5.0276   -8.5227   17.5352 C   0  0  0  0  0  0  0  0  0  0  0  0
    9.8187   -2.0895   25.5800 C   0  0  0  0  0  0  0  0  0  0  0  0
    5.6473   -8.7216   15.3158 C   0  0  0  0  0  0  0  0  0  0  0  0
   10.7581   -3.1233   19.4720 N   0  0  0  0  0  0  0  0  0  0  0  0
    9.9571   -4.0573   16.8866 C   0  0  0  0  0  0  0  0  0  0  0  0
    7.6213   -6.5618   16.0087 C   0  0  0  0  0  0  0  0  0  0  0  0
   10.8583   -2.6527   20.7222 C   0  0  0  0  0  0  0  0  0  0  0  0
   10.6412   -3.5089   21.7936 C   0  0  0  0  0  0  0  0  0  0  0  0
   10.4972   -3.8968   24.1589 C   0  0  0  0  0  0  0  0  0  0  0  0
    5.9260   -8.2736   16.5517 C   0  0  0  0  0  0  0  0  0  0  0  0
    3.8816   -9.1166   17.2493 C   0  0  0  0  0  0  0  0  0  0  0  0
   10.1297   -1.6575   23.2324 C   0  0  0  0  0  0  0  0  0  0  0  0
    9.4684   -1.6929   26.7263 F   0  0  0  0  0  0  0  0  0  0  0  0
    7.7963   -7.7906   17.9837 C   0  0  0  0  0  0  0  0  0  0  0  0
   10.5884   -3.0725   16.7902 O   0  0  0  0  0  0  0  0  0  0  0  0
   10.4323   -5.3494   20.3516 C   0  0  0  0  0  0  0  0  0  0  0  0
    7.1156   -7.5454   16.8218 C   0  0  0  0  0  0  0  0  0  0  0  0
   10.3885   -4.4388   19.2773 C   0  0  0  0  0  0  0  0  0  0  0  0
    4.5160   -9.3822   15.0841 C   0  0  0  0  0  0  0  0  0  0  0  0
  1  3  4  0
  1 24  4  0
  2  6  4  0
  2 15  4  0
  3  5  4  0
  3  6  4  0
  4 21  4  0
  4 29  4  0
  5 15  4  0
  5 28  1  0
  6 16  4  0
  7 18  4  0
  7 26  4  0
  8 18  1  0
  8 19  4  0
  8 22  4  0
  9 12  4  0
  9 19  4  0
 10 12  4  0
 10 22  4  0
 11 20  4  0
 11 21  4  0
 12 23  1  0
 13 20  4  0
 13 29  4  0
 14 17  4  0
 14 28  4  0
 15 25  2  0
 16 27  4  0
 17 18  4  0
 20 27  1  0
 24 27  4  0
 26 28  4  0
M  END
$$$$

 Created by Python create_sdf_string function

 29 33  0  0  0  0  0  0  0  0999 V2000
    8.8270   -7.0288   18.4251 C   0  0  0  0  0  0  0  0  0  0  0  0
    9.1576   -4.6236   15.8860 O   0  0  0  0  0  0  0  0  0  0  0  0
    9.1509   -5.9108   17.7177 C   0  0  0  0  0  0  0  0  0  0  0  0
    3.6373   -9.5349   16.0582 N   0  0  0  0  0  0  0  0  0  0  0  0
    9.9275   -4.8001   18.0438 N   0  0  0  0  0  0  0  0  0  0  0  0
    8.5908   -5.7425   16.4412 C   0  0  0  0  0  0  0  0  0  0  0  0
   10.5993   -4.8981   21.6068 C   0  0  0  0  0  0  0  0  0  0  0  0
   10.4258   -3.0106   23.0998 C   0  0  0  0  0  0  0  0  0  0  0  0
   10.2148   -3.4364   25.4200 C   0  0  0  0  0  0  0  0  0  0  0  0
    9.7853   -1.1840   24.4927 C   0  0  0  0  0  0  0  0  0  0  0  0
    5.0276   -8.5227   17.5352 C   0  0  0  0  0  0  0  0  0  0  0  0
    9.8187   -2.0895   25.5800 C   0  0  0  0  0  0  0  0  0  0  0  0
    5.6473   -8.7216   15.3158 C   0  0  0  0  0  0  0  0  0  0  0  0
   10.7581   -3.1233   19.4720 N   0  0  0  0  0  0  0  0  0  0  0  0
    9.9571   -4.0573   16.8866 C   0  0  0  0  0  0  0  0  0  0  0  0
    7.6213   -6.5618   16.0087 C   0  0  0  0  0  0  0  0  0  0  0  0
   10.8583   -2.6527   20.7222 C   0  0  0  0  0  0  0  0  0  0  0  0
   10.6412   -3.5089   21.7936 C   0  0  0  0  0  0  0  0  0  0  0  0
   10.4972   -3.8968   24.1589 C   0  0  0  0  0  0  0  0  0  0  0  0
    5.9260   -8.2736   16.5517 C   0  0  0  0  0  0  0  0  0  0  0  0
    3.8816   -9.1166   17.2493 C   0  0  0  0  0  0  0  0  0  0  0  0
   10.1297   -1.6575   23.2324 C   0  0  0  0  0  0  0  0  0  0  0  0
    9.4684   -1.6929   26.7263 F   0  0  0  0  0  0  0  0  0  0  0  0
    7.7963   -7.7906   17.9837 C   0  0  0  0  0  0  0  0  0  0  0  0
   10.5884   -3.0725   16.7902 O   0  0  0  0  0  0  0  0  0  0  0  0
   10.4323   -5.3494   20.3516 C   0  0  0  0  0  0  0  0  0  0  0  0
    7.1156   -7.5454   16.8218 C   0  0  0  0  0  0  0  0  0  0  0  0
   10.3885   -4.4388   19.2773 C   0  0  0  0  0  0  0  0  0  0  0  0
    4.5160   -9.3822   15.0841 C   0  0  0  0  0  0  0  0  0  0  0  0
  1  3  4  0
  1 24  4  0
  2  6  4  0
  2 15  4  0
  3  5  4  0
  3  6  4  0
  4 21  4  0
  4 29  4  0
  5 15  4  0
  5 28  1  0
  6 16  4  0
  7 18  4  0
  7 26  4  0
  8 18  1  0
  8 19  4  0
  8 22  4  0
  9 12  4  0
  9 19  4  0
 10 12  4  0
 10 22  4  0
 11 20  4  0
 11 21  4  0
 12 23  1  0
 13 20  4  0
 13 29  4  0
 14 17  4  0
 14 28  4  0
 15 25  2  0
 16 27  4  0
 17 18  4  0
 20 27  1  0
 24 27  4  0
 26 28  4  0
M  END
$$$$

 Created by Python create_sdf_string function

 29 33  0  0  0  0  0  0  0  0999 V2000
    8.8270   -7.0288   18.4251 C   0  0  0  0  0  0  0  0  0  0  0  0
    9.1576   -4.6236   15.8860 O   0  0  0  0  0  0  0  0  0  0  0  0
    9.1509   -5.9108   17.7177 C   0  0  0  0  0  0  0  0  0  0  0  0
    3.6373   -9.5349   16.0582 N   0  0  0  0  0  0  0  0  0  0  0  0
    9.9275   -4.8001   18.0438 N   0  0  0  0  0  0  0  0  0  0  0  0
    8.5908   -5.7425   16.4412 C   0  0  0  0  0  0  0  0  0  0  0  0
   10.5993   -4.8981   21.6068 C   0  0  0  0  0  0  0  0  0  0  0  0
   10.4258   -3.0106   23.0998 C   0  0  0  0  0  0  0  0  0  0  0  0
   10.2148   -3.4364   25.4200 C   0  0  0  0  0  0  0  0  0  0  0  0
    9.7853   -1.1840   24.4927 C   0  0  0  0  0  0  0  0  0  0  0  0
    5.0276   -8.5227   17.5352 C   0  0  0  0  0  0  0  0  0  0  0  0
    9.8187   -2.0895   25.5800 C   0  0  0  0  0  0  0  0  0  0  0  0
    5.6473   -8.7216   15.3158 C   0  0  0  0  0  0  0  0  0  0  0  0
   10.7581   -3.1233   19.4720 N   0  0  0  0  0  0  0  0  0  0  0  0
    9.9571   -4.0573   16.8866 C   0  0  0  0  0  0  0  0  0  0  0  0
    7.6213   -6.5618   16.0087 C   0  0  0  0  0  0  0  0  0  0  0  0
   10.8583   -2.6527   20.7222 C   0  0  0  0  0  0  0  0  0  0  0  0
   10.6412   -3.5089   21.7936 C   0  0  0  0  0  0  0  0  0  0  0  0
   10.4972   -3.8968   24.1589 C   0  0  0  0  0  0  0  0  0  0  0  0
    5.9260   -8.2736   16.5517 C   0  0  0  0  0  0  0  0  0  0  0  0
    3.8816   -9.1166   17.2493 C   0  0  0  0  0  0  0  0  0  0  0  0
   10.1297   -1.6575   23.2324 C   0  0  0  0  0  0  0  0  0  0  0  0
    9.4684   -1.6929   26.7263 F   0  0  0  0  0  0  0  0  0  0  0  0
    7.7963   -7.7906   17.9837 C   0  0  0  0  0  0  0  0  0  0  0  0
   10.5884   -3.0725   16.7902 O   0  0  0  0  0  0  0  0  0  0  0  0
   10.4323   -5.3494   20.3516 C   0  0  0  0  0  0  0  0  0  0  0  0
    7.1156   -7.5454   16.8218 C   0  0  0  0  0  0  0  0  0  0  0  0
   10.3885   -4.4388   19.2773 C   0  0  0  0  0  0  0  0  0  0  0  0
    4.5160   -9.3822   15.0841 C   0  0  0  0  0  0  0  0  0  0  0  0
  1  3  4  0
  1 24  4  0
  2  6  4  0
  2 15  4  0
  3  5  4  0
  3  6  4  0
  4 21  4  0
  4 29  4  0
  5 15  4  0
  5 28  1  0
  6 16  4  0
  7 18  4  0
  7 26  4  0
  8 18  1  0
  8 19  4  0
  8 22  4  0
  9 12  4  0
  9 19  4  0
 10 12  4  0
 10 22  4  0
 11 20  4  0
 11 21  4  0
 12 23  1  0
 13 20  4  0
 13 29  4  0
 14 17  4  0
 14 28  4  0
 15 25  2  0
 16 27  4  0
 17 18  4  0
 20 27  1  0
 24 27  4  0
 26 28  4  0
M  END
$$$$

 Created by Python create_sdf_string function

 29 33  0  0  0  0  0  0  0  0999 V2000
    8.8270   -7.0288   18.4251 C   0  0  0  0  0  0  0  0  0  0  0  0
    9.1576   -4.6236   15.8860 O   0  0  0  0  0  0  0  0  0  0  0  0
    9.1509   -5.9108   17.7177 C   0  0  0  0  0  0  0  0  0  0  0  0
    3.6373   -9.5349   16.0582 N   0  0  0  0  0  0  0  0  0  0  0  0
    9.9275   -4.8001   18.0438 N   0  0  0  0  0  0  0  0  0  0  0  0
    8.5908   -5.7425   16.4412 C   0  0  0  0  0  0  0  0  0  0  0  0
   10.5993   -4.8981   21.6068 C   0  0  0  0  0  0  0  0  0  0  0  0
   10.4258   -3.0106   23.0998 C   0  0  0  0  0  0  0  0  0  0  0  0
   10.2148   -3.4364   25.4200 C   0  0  0  0  0  0  0  0  0  0  0  0
    9.7853   -1.1840   24.4927 C   0  0  0  0  0  0  0  0  0  0  0  0
    5.0276   -8.5227   17.5352 C   0  0  0  0  0  0  0  0  0  0  0  0
    9.8187   -2.0895   25.5800 C   0  0  0  0  0  0  0  0  0  0  0  0
    5.6473   -8.7216   15.3158 C   0  0  0  0  0  0  0  0  0  0  0  0
   10.7581   -3.1233   19.4720 N   0  0  0  0  0  0  0  0  0  0  0  0
    9.9571   -4.0573   16.8866 C   0  0  0  0  0  0  0  0  0  0  0  0
    7.6213   -6.5618   16.0087 C   0  0  0  0  0  0  0  0  0  0  0  0
   10.8583   -2.6527   20.7222 C   0  0  0  0  0  0  0  0  0  0  0  0
   10.6412   -3.5089   21.7936 C   0  0  0  0  0  0  0  0  0  0  0  0
   10.4972   -3.8968   24.1589 C   0  0  0  0  0  0  0  0  0  0  0  0
    5.9260   -8.2736   16.5517 C   0  0  0  0  0  0  0  0  0  0  0  0
    3.8816   -9.1166   17.2493 C   0  0  0  0  0  0  0  0  0  0  0  0
   10.1297   -1.6575   23.2324 C   0  0  0  0  0  0  0  0  0  0  0  0
    9.4684   -1.6929   26.7263 F   0  0  0  0  0  0  0  0  0  0  0  0
    7.7963   -7.7906   17.9837 C   0  0  0  0  0  0  0  0  0  0  0  0
   10.5884   -3.0725   16.7902 O   0  0  0  0  0  0  0  0  0  0  0  0
   10.4323   -5.3494   20.3516 C   0  0  0  0  0  0  0  0  0  0  0  0
    7.1156   -7.5454   16.8218 C   0  0  0  0  0  0  0  0  0  0  0  0
   10.3885   -4.4388   19.2773 C   0  0  0  0  0  0  0  0  0  0  0  0
    4.5160   -9.3822   15.0841 C   0  0  0  0  0  0  0  0  0  0  0  0
  1  3  4  0
  1 24  4  0
  2  6  4  0
  2 15  4  0
  3  5  4  0
  3  6  4  0
  4 21  4  0
  4 29  4  0
  5 15  4  0
  5 28  1  0
  6 16  4  0
  7 18  4  0
  7 26  4  0
  8 18  1  0
  8 19  4  0
  8 22  4  0
  9 12  4  0
  9 19  4  0
 10 12  4  0
 10 22  4  0
 11 20  4  0
 11 21  4  0
 12 23  1  0
 13 20  4  0
 13 29  4  0
 14 17  4  0
 14 28  4  0
 15 25  2  0
 16 27  4  0
 17 18  4  0
 20 27  1  0
 24 27  4  0
 26 28  4  0
M  END
$$$$

 Created by Python create_sdf_string function

 29 33  0  0  0  0  0  0  0  0999 V2000
    8.8270   -7.0288   18.4251 C   0  0  0  0  0  0  0  0  0  0  0  0
    9.1576   -4.6236   15.8860 O   0  0  0  0  0  0  0  0  0  0  0  0
    9.1509   -5.9108   17.7177 C   0  0  0  0  0  0  0  0  0  0  0  0
    3.6373   -9.5349   16.0582 N   0  0  0  0  0  0  0  0  0  0  0  0
    9.9275   -4.8001   18.0438 N   0  0  0  0  0  0  0  0  0  0  0  0
    8.5908   -5.7425   16.4412 C   0  0  0  0  0  0  0  0  0  0  0  0
   10.5993   -4.8981   21.6068 C   0  0  0  0  0  0  0  0  0  0  0  0
   10.4258   -3.0106   23.0998 C   0  0  0  0  0  0  0  0  0  0  0  0
   10.2148   -3.4364   25.4200 C   0  0  0  0  0  0  0  0  0  0  0  0
    9.7853   -1.1840   24.4927 C   0  0  0  0  0  0  0  0  0  0  0  0
    5.0276   -8.5227   17.5352 C   0  0  0  0  0  0  0  0  0  0  0  0
    9.8187   -2.0895   25.5800 C   0  0  0  0  0  0  0  0  0  0  0  0
    5.6473   -8.7216   15.3158 C   0  0  0  0  0  0  0  0  0  0  0  0
   10.7581   -3.1233   19.4720 N   0  0  0  0  0  0  0  0  0  0  0  0
    9.9571   -4.0573   16.8866 C   0  0  0  0  0  0  0  0  0  0  0  0
    7.6213   -6.5618   16.0087 C   0  0  0  0  0  0  0  0  0  0  0  0
   10.8583   -2.6527   20.7222 C   0  0  0  0  0  0  0  0  0  0  0  0
   10.6412   -3.5089   21.7936 C   0  0  0  0  0  0  0  0  0  0  0  0
   10.4972   -3.8968   24.1589 C   0  0  0  0  0  0  0  0  0  0  0  0
    5.9260   -8.2736   16.5517 C   0  0  0  0  0  0  0  0  0  0  0  0
    3.8816   -9.1166   17.2493 C   0  0  0  0  0  0  0  0  0  0  0  0
   10.1297   -1.6575   23.2324 C   0  0  0  0  0  0  0  0  0  0  0  0
    9.4684   -1.6929   26.7263 F   0  0  0  0  0  0  0  0  0  0  0  0
    7.7963   -7.7906   17.9837 C   0  0  0  0  0  0  0  0  0  0  0  0
   10.5884   -3.0725   16.7902 O   0  0  0  0  0  0  0  0  0  0  0  0
   10.4323   -5.3494   20.3516 C   0  0  0  0  0  0  0  0  0  0  0  0
    7.1156   -7.5454   16.8218 C   0  0  0  0  0  0  0  0  0  0  0  0
   10.3885   -4.4388   19.2773 C   0  0  0  0  0  0  0  0  0  0  0  0
    4.5160   -9.3822   15.0841 C   0  0  0  0  0  0  0  0  0  0  0  0
  1  3  4  0
  1 24  4  0
  2  6  4  0
  2 15  4  0
  3  5  4  0
  3  6  4  0
  4 21  4  0
  4 29  4  0
  5 15  4  0
  5 28  1  0
  6 16  4  0
  7 18  4  0
  7 26  4  0
  8 18  1  0
  8 19  4  0
  8 22  4  0
  9 12  4  0
  9 19  4  0
 10 12  4  0
 10 22  4  0
 11 20  4  0
 11 21  4  0
 12 23  1  0
 13 20  4  0
 13 29  4  0
 14 17  4  0
 14 28  4  0
 15 25  2  0
 16 27  4  0
 17 18  4  0
 20 27  1  0
 24 27  4  0
 26 28  4  0
M  END
$$$$

 Created by Python create_sdf_string function

 29 33  0  0  0  0  0  0  0  0999 V2000
    8.8270   -7.0288   18.4251 C   0  0  0  0  0  0  0  0  0  0  0  0
    9.1576   -4.6236   15.8860 O   0  0  0  0  0  0  0  0  0  0  0  0
    9.1509   -5.9108   17.7177 C   0  0  0  0  0  0  0  0  0  0  0  0
    3.6373   -9.5349   16.0582 N   0  0  0  0  0  0  0  0  0  0  0  0
    9.9275   -4.8001   18.0438 N   0  0  0  0  0  0  0  0  0  0  0  0
    8.5908   -5.7425   16.4412 C   0  0  0  0  0  0  0  0  0  0  0  0
   10.5993   -4.8981   21.6068 C   0  0  0  0  0  0  0  0  0  0  0  0
   10.4258   -3.0106   23.0998 C   0  0  0  0  0  0  0  0  0  0  0  0
   10.2148   -3.4364   25.4200 C   0  0  0  0  0  0  0  0  0  0  0  0
    9.7853   -1.1840   24.4927 C   0  0  0  0  0  0  0  0  0  0  0  0
    5.0276   -8.5227   17.5352 C   0  0  0  0  0  0  0  0  0  0  0  0
    9.8187   -2.0895   25.5800 C   0  0  0  0  0  0  0  0  0  0  0  0
    5.6473   -8.7216   15.3158 C   0  0  0  0  0  0  0  0  0  0  0  0
   10.7581   -3.1233   19.4720 N   0  0  0  0  0  0  0  0  0  0  0  0
    9.9571   -4.0573   16.8866 C   0  0  0  0  0  0  0  0  0  0  0  0
    7.6213   -6.5618   16.0087 C   0  0  0  0  0  0  0  0  0  0  0  0
   10.8583   -2.6527   20.7222 C   0  0  0  0  0  0  0  0  0  0  0  0
   10.6412   -3.5089   21.7936 C   0  0  0  0  0  0  0  0  0  0  0  0
   10.4972   -3.8968   24.1589 C   0  0  0  0  0  0  0  0  0  0  0  0
    5.9260   -8.2736   16.5517 C   0  0  0  0  0  0  0  0  0  0  0  0
    3.8816   -9.1166   17.2493 C   0  0  0  0  0  0  0  0  0  0  0  0
   10.1297   -1.6575   23.2324 C   0  0  0  0  0  0  0  0  0  0  0  0
    9.4684   -1.6929   26.7263 F   0  0  0  0  0  0  0  0  0  0  0  0
    7.7963   -7.7906   17.9837 C   0  0  0  0  0  0  0  0  0  0  0  0
   10.5884   -3.0725   16.7902 O   0  0  0  0  0  0  0  0  0  0  0  0
   10.4323   -5.3494   20.3516 C   0  0  0  0  0  0  0  0  0  0  0  0
    7.1156   -7.5454   16.8218 C   0  0  0  0  0  0  0  0  0  0  0  0
   10.3885   -4.4388   19.2773 C   0  0  0  0  0  0  0  0  0  0  0  0
    4.5160   -9.3822   15.0841 C   0  0  0  0  0  0  0  0  0  0  0  0
  1  3  4  0
  1 24  4  0
  2  6  4  0
  2 15  4  0
  3  5  4  0
  3  6  4  0
  4 21  4  0
  4 29  4  0
  5 15  4  0
  5 28  1  0
  6 16  4  0
  7 18  4  0
  7 26  4  0
  8 18  1  0
  8 19  4  0
  8 22  4  0
  9 12  4  0
  9 19  4  0
 10 12  4  0
 10 22  4  0
 11 20  4  0
 11 21  4  0
 12 23  1  0
 13 20  4  0
 13 29  4  0
 14 17  4  0
 14 28  4  0
 15 25  2  0
 16 27  4  0
 17 18  4  0
 20 27  1  0
 24 27  4  0
 26 28  4  0
M  END
$$$$

 Created by Python create_sdf_string function

 29 33  0  0  0  0  0  0  0  0999 V2000
    8.8270   -7.0288   18.4251 C   0  0  0  0  0  0  0  0  0  0  0  0
    9.1576   -4.6236   15.8860 O   0  0  0  0  0  0  0  0  0  0  0  0
    9.1509   -5.9108   17.7177 C   0  0  0  0  0  0  0  0  0  0  0  0
    3.6373   -9.5349   16.0582 N   0  0  0  0  0  0  0  0  0  0  0  0
    9.9275   -4.8001   18.0438 N   0  0  0  0  0  0  0  0  0  0  0  0
    8.5908   -5.7425   16.4412 C   0  0  0  0  0  0  0  0  0  0  0  0
   10.5993   -4.8981   21.6068 C   0  0  0  0  0  0  0  0  0  0  0  0
   10.4258   -3.0106   23.0998 C   0  0  0  0  0  0  0  0  0  0  0  0
   10.2148   -3.4364   25.4200 C   0  0  0  0  0  0  0  0  0  0  0  0
    9.7853   -1.1840   24.4927 C   0  0  0  0  0  0  0  0  0  0  0  0
    5.0276   -8.5227   17.5352 C   0  0  0  0  0  0  0  0  0  0  0  0
    9.8187   -2.0895   25.5800 C   0  0  0  0  0  0  0  0  0  0  0  0
    5.6473   -8.7216   15.3158 C   0  0  0  0  0  0  0  0  0  0  0  0
   10.7581   -3.1233   19.4720 N   0  0  0  0  0  0  0  0  0  0  0  0
    9.9571   -4.0573   16.8866 C   0  0  0  0  0  0  0  0  0  0  0  0
    7.6213   -6.5618   16.0087 C   0  0  0  0  0  0  0  0  0  0  0  0
   10.8583   -2.6527   20.7222 C   0  0  0  0  0  0  0  0  0  0  0  0
   10.6412   -3.5089   21.7936 C   0  0  0  0  0  0  0  0  0  0  0  0
   10.4972   -3.8968   24.1589 C   0  0  0  0  0  0  0  0  0  0  0  0
    5.9260   -8.2736   16.5517 C   0  0  0  0  0  0  0  0  0  0  0  0
    3.8816   -9.1166   17.2493 C   0  0  0  0  0  0  0  0  0  0  0  0
   10.1297   -1.6575   23.2324 C   0  0  0  0  0  0  0  0  0  0  0  0
    9.4684   -1.6929   26.7263 F   0  0  0  0  0  0  0  0  0  0  0  0
    7.7963   -7.7906   17.9837 C   0  0  0  0  0  0  0  0  0  0  0  0
   10.5884   -3.0725   16.7902 O   0  0  0  0  0  0  0  0  0  0  0  0
   10.4323   -5.3494   20.3516 C   0  0  0  0  0  0  0  0  0  0  0  0
    7.1156   -7.5454   16.8218 C   0  0  0  0  0  0  0  0  0  0  0  0
   10.3885   -4.4388   19.2773 C   0  0  0  0  0  0  0  0  0  0  0  0
    4.5160   -9.3822   15.0841 C   0  0  0  0  0  0  0  0  0  0  0  0
  1  3  4  0
  1 24  4  0
  2  6  4  0
  2 15  4  0
  3  5  4  0
  3  6  4  0
  4 21  4  0
  4 29  4  0
  5 15  4  0
  5 28  1  0
  6 16  4  0
  7 18  4  0
  7 26  4  0
  8 18  1  0
  8 19  4  0
  8 22  4  0
  9 12  4  0
  9 19  4  0
 10 12  4  0
 10 22  4  0
 11 20  4  0
 11 21  4  0
 12 23  1  0
 13 20  4  0
 13 29  4  0
 14 17  4  0
 14 28  4  0
 15 25  2  0
 16 27  4  0
 17 18  4  0
 20 27  1  0
 24 27  4  0
 26 28  4  0
M  END
$$$$

 Created by Python create_sdf_string function

 29 33  0  0  0  0  0  0  0  0999 V2000
    8.8270   -7.0288   18.4251 C   0  0  0  0  0  0  0  0  0  0  0  0
    9.1576   -4.6236   15.8860 O   0  0  0  0  0  0  0  0  0  0  0  0
    9.1509   -5.9108   17.7177 C   0  0  0  0  0  0  0  0  0  0  0  0
    3.6373   -9.5349   16.0582 N   0  0  0  0  0  0  0  0  0  0  0  0
    9.9275   -4.8001   18.0438 N   0  0  0  0  0  0  0  0  0  0  0  0
    8.5908   -5.7425   16.4412 C   0  0  0  0  0  0  0  0  0  0  0  0
   10.5993   -4.8981   21.6068 C   0  0  0  0  0  0  0  0  0  0  0  0
   10.4258   -3.0106   23.0998 C   0  0  0  0  0  0  0  0  0  0  0  0
   10.2148   -3.4364   25.4200 C   0  0  0  0  0  0  0  0  0  0  0  0
    9.7853   -1.1840   24.4927 C   0  0  0  0  0  0  0  0  0  0  0  0
    5.0276   -8.5227   17.5352 C   0  0  0  0  0  0  0  0  0  0  0  0
    9.8187   -2.0895   25.5800 C   0  0  0  0  0  0  0  0  0  0  0  0
    5.6473   -8.7216   15.3158 C   0  0  0  0  0  0  0  0  0  0  0  0
   10.7581   -3.1233   19.4720 N   0  0  0  0  0  0  0  0  0  0  0  0
    9.9571   -4.0573   16.8866 C   0  0  0  0  0  0  0  0  0  0  0  0
    7.6213   -6.5618   16.0087 C   0  0  0  0  0  0  0  0  0  0  0  0
   10.8583   -2.6527   20.7222 C   0  0  0  0  0  0  0  0  0  0  0  0
   10.6412   -3.5089   21.7936 C   0  0  0  0  0  0  0  0  0  0  0  0
   10.4972   -3.8968   24.1589 C   0  0  0  0  0  0  0  0  0  0  0  0
    5.9260   -8.2736   16.5517 C   0  0  0  0  0  0  0  0  0  0  0  0
    3.8816   -9.1166   17.2493 C   0  0  0  0  0  0  0  0  0  0  0  0
   10.1297   -1.6575   23.2324 C   0  0  0  0  0  0  0  0  0  0  0  0
    9.4684   -1.6929   26.7263 F   0  0  0  0  0  0  0  0  0  0  0  0
    7.7963   -7.7906   17.9837 C   0  0  0  0  0  0  0  0  0  0  0  0
   10.5884   -3.0725   16.7902 O   0  0  0  0  0  0  0  0  0  0  0  0
   10.4323   -5.3494   20.3516 C   0  0  0  0  0  0  0  0  0  0  0  0
    7.1156   -7.5454   16.8218 C   0  0  0  0  0  0  0  0  0  0  0  0
   10.3885   -4.4388   19.2773 C   0  0  0  0  0  0  0  0  0  0  0  0
    4.5160   -9.3822   15.0841 C   0  0  0  0  0  0  0  0  0  0  0  0
  1  3  4  0
  1 24  4  0
  2  6  4  0
  2 15  4  0
  3  5  4  0
  3  6  4  0
  4 21  4  0
  4 29  4  0
  5 15  4  0
  5 28  1  0
  6 16  4  0
  7 18  4  0
  7 26  4  0
  8 18  1  0
  8 19  4  0
  8 22  4  0
  9 12  4  0
  9 19  4  0
 10 12  4  0
 10 22  4  0
 11 20  4  0
 11 21  4  0
 12 23  1  0
 13 20  4  0
 13 29  4  0
 14 17  4  0
 14 28  4  0
 15 25  2  0
 16 27  4  0
 17 18  4  0
 20 27  1  0
 24 27  4  0
 26 28  4  0
M  END
$$$$

 Created by Python create_sdf_string function

 29 33  0  0  0  0  0  0  0  0999 V2000
    8.8270   -7.0288   18.4251 C   0  0  0  0  0  0  0  0  0  0  0  0
    9.1576   -4.6236   15.8860 O   0  0  0  0  0  0  0  0  0  0  0  0
    9.1509   -5.9108   17.7177 C   0  0  0  0  0  0  0  0  0  0  0  0
    3.6373   -9.5349   16.0582 N   0  0  0  0  0  0  0  0  0  0  0  0
    9.9275   -4.8001   18.0438 N   0  0  0  0  0  0  0  0  0  0  0  0
    8.5908   -5.7425   16.4412 C   0  0  0  0  0  0  0  0  0  0  0  0
   10.5993   -4.8981   21.6068 C   0  0  0  0  0  0  0  0  0  0  0  0
   10.4258   -3.0106   23.0998 C   0  0  0  0  0  0  0  0  0  0  0  0
   10.2148   -3.4364   25.4200 C   0  0  0  0  0  0  0  0  0  0  0  0
    9.7853   -1.1840   24.4927 C   0  0  0  0  0  0  0  0  0  0  0  0
    5.0276   -8.5227   17.5352 C   0  0  0  0  0  0  0  0  0  0  0  0
    9.8187   -2.0895   25.5800 C   0  0  0  0  0  0  0  0  0  0  0  0
    5.6473   -8.7216   15.3158 C   0  0  0  0  0  0  0  0  0  0  0  0
   10.7581   -3.1233   19.4720 N   0  0  0  0  0  0  0  0  0  0  0  0
    9.9571   -4.0573   16.8866 C   0  0  0  0  0  0  0  0  0  0  0  0
    7.6213   -6.5618   16.0087 C   0  0  0  0  0  0  0  0  0  0  0  0
   10.8583   -2.6527   20.7222 C   0  0  0  0  0  0  0  0  0  0  0  0
   10.6412   -3.5089   21.7936 C   0  0  0  0  0  0  0  0  0  0  0  0
   10.4972   -3.8968   24.1589 C   0  0  0  0  0  0  0  0  0  0  0  0
    5.9260   -8.2736   16.5517 C   0  0  0  0  0  0  0  0  0  0  0  0
    3.8816   -9.1166   17.2493 C   0  0  0  0  0  0  0  0  0  0  0  0
   10.1297   -1.6575   23.2324 C   0  0  0  0  0  0  0  0  0  0  0  0
    9.4684   -1.6929   26.7263 F   0  0  0  0  0  0  0  0  0  0  0  0
    7.7963   -7.7906   17.9837 C   0  0  0  0  0  0  0  0  0  0  0  0
   10.5884   -3.0725   16.7902 O   0  0  0  0  0  0  0  0  0  0  0  0
   10.4323   -5.3494   20.3516 C   0  0  0  0  0  0  0  0  0  0  0  0
    7.1156   -7.5454   16.8218 C   0  0  0  0  0  0  0  0  0  0  0  0
   10.3885   -4.4388   19.2773 C   0  0  0  0  0  0  0  0  0  0  0  0
    4.5160   -9.3822   15.0841 C   0  0  0  0  0  0  0  0  0  0  0  0
  1  3  4  0
  1 24  4  0
  2  6  4  0
  2 15  4  0
  3  5  4  0
  3  6  4  0
  4 21  4  0
  4 29  4  0
  5 15  4  0
  5 28  1  0
  6 16  4  0
  7 18  4  0
  7 26  4  0
  8 18  1  0
  8 19  4  0
  8 22  4  0
  9 12  4  0
  9 19  4  0
 10 12  4  0
 10 22  4  0
 11 20  4  0
 11 21  4  0
 12 23  1  0
 13 20  4  0
 13 29  4  0
 14 17  4  0
 14 28  4  0
 15 25  2  0
 16 27  4  0
 17 18  4  0
 20 27  1  0
 24 27  4  0
 26 28  4  0
M  END
$$$$

 Created by Python create_sdf_string function

 29 33  0  0  0  0  0  0  0  0999 V2000
    8.8270   -7.0288   18.4251 C   0  0  0  0  0  0  0  0  0  0  0  0
    9.1576   -4.6236   15.8860 O   0  0  0  0  0  0  0  0  0  0  0  0
    9.1509   -5.9108   17.7177 C   0  0  0  0  0  0  0  0  0  0  0  0
    3.6373   -9.5349   16.0582 N   0  0  0  0  0  0  0  0  0  0  0  0
    9.9275   -4.8001   18.0438 N   0  0  0  0  0  0  0  0  0  0  0  0
    8.5908   -5.7425   16.4412 C   0  0  0  0  0  0  0  0  0  0  0  0
   10.5993   -4.8981   21.6068 C   0  0  0  0  0  0  0  0  0  0  0  0
   10.4258   -3.0106   23.0998 C   0  0  0  0  0  0  0  0  0  0  0  0
   10.2148   -3.4364   25.4200 C   0  0  0  0  0  0  0  0  0  0  0  0
    9.7853   -1.1840   24.4927 C   0  0  0  0  0  0  0  0  0  0  0  0
    5.0276   -8.5227   17.5352 C   0  0  0  0  0  0  0  0  0  0  0  0
    9.8187   -2.0895   25.5800 C   0  0  0  0  0  0  0  0  0  0  0  0
    5.6473   -8.7216   15.3158 C   0  0  0  0  0  0  0  0  0  0  0  0
   10.7581   -3.1233   19.4720 N   0  0  0  0  0  0  0  0  0  0  0  0
    9.9571   -4.0573   16.8866 C   0  0  0  0  0  0  0  0  0  0  0  0
    7.6213   -6.5618   16.0087 C   0  0  0  0  0  0  0  0  0  0  0  0
   10.8583   -2.6527   20.7222 C   0  0  0  0  0  0  0  0  0  0  0  0
   10.6412   -3.5089   21.7936 C   0  0  0  0  0  0  0  0  0  0  0  0
   10.4972   -3.8968   24.1589 C   0  0  0  0  0  0  0  0  0  0  0  0
    5.9260   -8.2736   16.5517 C   0  0  0  0  0  0  0  0  0  0  0  0
    3.8816   -9.1166   17.2493 C   0  0  0  0  0  0  0  0  0  0  0  0
   10.1297   -1.6575   23.2324 C   0  0  0  0  0  0  0  0  0  0  0  0
    9.4684   -1.6929   26.7263 F   0  0  0  0  0  0  0  0  0  0  0  0
    7.7963   -7.7906   17.9837 C   0  0  0  0  0  0  0  0  0  0  0  0
   10.5884   -3.0725   16.7902 O   0  0  0  0  0  0  0  0  0  0  0  0
   10.4323   -5.3494   20.3516 C   0  0  0  0  0  0  0  0  0  0  0  0
    7.1156   -7.5454   16.8218 C   0  0  0  0  0  0  0  0  0  0  0  0
   10.3885   -4.4388   19.2773 C   0  0  0  0  0  0  0  0  0  0  0  0
    4.5160   -9.3822   15.0841 C   0  0  0  0  0  0  0  0  0  0  0  0
  1  3  4  0
  1 24  4  0
  2  6  4  0
  2 15  4  0
  3  5  4  0
  3  6  4  0
  4 21  4  0
  4 29  4  0
  5 15  4  0
  5 28  1  0
  6 16  4  0
  7 18  4  0
  7 26  4  0
  8 18  1  0
  8 19  4  0
  8 22  4  0
  9 12  4  0
  9 19  4  0
 10 12  4  0
 10 22  4  0
 11 20  4  0
 11 21  4  0
 12 23  1  0
 13 20  4  0
 13 29  4  0
 14 17  4  0
 14 28  4  0
 15 25  2  0
 16 27  4  0
 17 18  4  0
 20 27  1  0
 24 27  4  0
 26 28  4  0
M  END
$$$$

 Created by Python create_sdf_string function

 29 33  0  0  0  0  0  0  0  0999 V2000
    8.8270   -7.0288   18.4251 C   0  0  0  0  0  0  0  0  0  0  0  0
    9.1576   -4.6236   15.8860 O   0  0  0  0  0  0  0  0  0  0  0  0
    9.1509   -5.9108   17.7177 C   0  0  0  0  0  0  0  0  0  0  0  0
    3.6373   -9.5349   16.0582 N   0  0  0  0  0  0  0  0  0  0  0  0
    9.9275   -4.8001   18.0438 N   0  0  0  0  0  0  0  0  0  0  0  0
    8.5908   -5.7425   16.4412 C   0  0  0  0  0  0  0  0  0  0  0  0
   10.5993   -4.8981   21.6068 C   0  0  0  0  0  0  0  0  0  0  0  0
   10.4258   -3.0106   23.0998 C   0  0  0  0  0  0  0  0  0  0  0  0
   10.2148   -3.4364   25.4200 C   0  0  0  0  0  0  0  0  0  0  0  0
    9.7853   -1.1840   24.4927 C   0  0  0  0  0  0  0  0  0  0  0  0
    5.0276   -8.5227   17.5352 C   0  0  0  0  0  0  0  0  0  0  0  0
    9.8187   -2.0895   25.5800 C   0  0  0  0  0  0  0  0  0  0  0  0
    5.6473   -8.7216   15.3158 C   0  0  0  0  0  0  0  0  0  0  0  0
   10.7581   -3.1233   19.4720 N   0  0  0  0  0  0  0  0  0  0  0  0
    9.9571   -4.0573   16.8866 C   0  0  0  0  0  0  0  0  0  0  0  0
    7.6213   -6.5618   16.0087 C   0  0  0  0  0  0  0  0  0  0  0  0
   10.8583   -2.6527   20.7222 C   0  0  0  0  0  0  0  0  0  0  0  0
   10.6412   -3.5089   21.7936 C   0  0  0  0  0  0  0  0  0  0  0  0
   10.4972   -3.8968   24.1589 C   0  0  0  0  0  0  0  0  0  0  0  0
    5.9260   -8.2736   16.5517 C   0  0  0  0  0  0  0  0  0  0  0  0
    3.8816   -9.1166   17.2493 C   0  0  0  0  0  0  0  0  0  0  0  0
   10.1297   -1.6575   23.2324 C   0  0  0  0  0  0  0  0  0  0  0  0
    9.4684   -1.6929   26.7263 F   0  0  0  0  0  0  0  0  0  0  0  0
    7.7963   -7.7906   17.9837 C   0  0  0  0  0  0  0  0  0  0  0  0
   10.5884   -3.0725   16.7902 O   0  0  0  0  0  0  0  0  0  0  0  0
   10.4323   -5.3494   20.3516 C   0  0  0  0  0  0  0  0  0  0  0  0
    7.1156   -7.5454   16.8218 C   0  0  0  0  0  0  0  0  0  0  0  0
   10.3885   -4.4388   19.2773 C   0  0  0  0  0  0  0  0  0  0  0  0
    4.5160   -9.3822   15.0841 C   0  0  0  0  0  0  0  0  0  0  0  0
  1  3  4  0
  1 24  4  0
  2  6  4  0
  2 15  4  0
  3  5  4  0
  3  6  4  0
  4 21  4  0
  4 29  4  0
  5 15  4  0
  5 28  1  0
  6 16  4  0
  7 18  4  0
  7 26  4  0
  8 18  1  0
  8 19  4  0
  8 22  4  0
  9 12  4  0
  9 19  4  0
 10 12  4  0
 10 22  4  0
 11 20  4  0
 11 21  4  0
 12 23  1  0
 13 20  4  0
 13 29  4  0
 14 17  4  0
 14 28  4  0
 15 25  2  0
 16 27  4  0
 17 18  4  0
 20 27  1  0
 24 27  4  0
 26 28  4  0
M  END
$$$$

 Created by Python create_sdf_string function

 29 33  0  0  0  0  0  0  0  0999 V2000
    8.8270   -7.0288   18.4251 C   0  0  0  0  0  0  0  0  0  0  0  0
    9.1576   -4.6236   15.8860 O   0  0  0  0  0  0  0  0  0  0  0  0
    9.1509   -5.9108   17.7177 C   0  0  0  0  0  0  0  0  0  0  0  0
    3.6373   -9.5349   16.0582 N   0  0  0  0  0  0  0  0  0  0  0  0
    9.9275   -4.8001   18.0438 N   0  0  0  0  0  0  0  0  0  0  0  0
    8.5908   -5.7425   16.4412 C   0  0  0  0  0  0  0  0  0  0  0  0
   10.5993   -4.8981   21.6068 C   0  0  0  0  0  0  0  0  0  0  0  0
   10.4258   -3.0106   23.0998 C   0  0  0  0  0  0  0  0  0  0  0  0
   10.2148   -3.4364   25.4200 C   0  0  0  0  0  0  0  0  0  0  0  0
    9.7853   -1.1840   24.4927 C   0  0  0  0  0  0  0  0  0  0  0  0
    5.0276   -8.5227   17.5352 C   0  0  0  0  0  0  0  0  0  0  0  0
    9.8187   -2.0895   25.5800 C   0  0  0  0  0  0  0  0  0  0  0  0
    5.6473   -8.7216   15.3158 C   0  0  0  0  0  0  0  0  0  0  0  0
   10.7581   -3.1233   19.4720 N   0  0  0  0  0  0  0  0  0  0  0  0
    9.9571   -4.0573   16.8866 C   0  0  0  0  0  0  0  0  0  0  0  0
    7.6213   -6.5618   16.0087 C   0  0  0  0  0  0  0  0  0  0  0  0
   10.8583   -2.6527   20.7222 C   0  0  0  0  0  0  0  0  0  0  0  0
   10.6412   -3.5089   21.7936 C   0  0  0  0  0  0  0  0  0  0  0  0
   10.4972   -3.8968   24.1589 C   0  0  0  0  0  0  0  0  0  0  0  0
    5.9260   -8.2736   16.5517 C   0  0  0  0  0  0  0  0  0  0  0  0
    3.8816   -9.1166   17.2493 C   0  0  0  0  0  0  0  0  0  0  0  0
   10.1297   -1.6575   23.2324 C   0  0  0  0  0  0  0  0  0  0  0  0
    9.4684   -1.6929   26.7263 F   0  0  0  0  0  0  0  0  0  0  0  0
    7.7963   -7.7906   17.9837 C   0  0  0  0  0  0  0  0  0  0  0  0
   10.5884   -3.0725   16.7902 O   0  0  0  0  0  0  0  0  0  0  0  0
   10.4323   -5.3494   20.3516 C   0  0  0  0  0  0  0  0  0  0  0  0
    7.1156   -7.5454   16.8218 C   0  0  0  0  0  0  0  0  0  0  0  0
   10.3885   -4.4388   19.2773 C   0  0  0  0  0  0  0  0  0  0  0  0
    4.5160   -9.3822   15.0841 C   0  0  0  0  0  0  0  0  0  0  0  0
  1  3  4  0
  1 24  4  0
  2  6  4  0
  2 15  4  0
  3  5  4  0
  3  6  4  0
  4 21  4  0
  4 29  4  0
  5 15  4  0
  5 28  1  0
  6 16  4  0
  7 18  4  0
  7 26  4  0
  8 18  1  0
  8 19  4  0
  8 22  4  0
  9 12  4  0
  9 19  4  0
 10 12  4  0
 10 22  4  0
 11 20  4  0
 11 21  4  0
 12 23  1  0
 13 20  4  0
 13 29  4  0
 14 17  4  0
 14 28  4  0
 15 25  2  0
 16 27  4  0
 17 18  4  0
 20 27  1  0
 24 27  4  0
 26 28  4  0
M  END
$$$$

 Created by Python create_sdf_string function

 29 33  0  0  0  0  0  0  0  0999 V2000
    8.8270   -7.0288   18.4251 C   0  0  0  0  0  0  0  0  0  0  0  0
    9.1576   -4.6236   15.8860 O   0  0  0  0  0  0  0  0  0  0  0  0
    9.1509   -5.9108   17.7177 C   0  0  0  0  0  0  0  0  0  0  0  0
    3.6373   -9.5349   16.0582 N   0  0  0  0  0  0  0  0  0  0  0  0
    9.9275   -4.8001   18.0438 N   0  0  0  0  0  0  0  0  0  0  0  0
    8.5908   -5.7425   16.4412 C   0  0  0  0  0  0  0  0  0  0  0  0
   10.5993   -4.8981   21.6068 C   0  0  0  0  0  0  0  0  0  0  0  0
   10.4258   -3.0106   23.0998 C   0  0  0  0  0  0  0  0  0  0  0  0
   10.2148   -3.4364   25.4200 C   0  0  0  0  0  0  0  0  0  0  0  0
    9.7853   -1.1840   24.4927 C   0  0  0  0  0  0  0  0  0  0  0  0
    5.0276   -8.5227   17.5352 C   0  0  0  0  0  0  0  0  0  0  0  0
    9.8187   -2.0895   25.5800 C   0  0  0  0  0  0  0  0  0  0  0  0
    5.6473   -8.7216   15.3158 C   0  0  0  0  0  0  0  0  0  0  0  0
   10.7581   -3.1233   19.4720 N   0  0  0  0  0  0  0  0  0  0  0  0
    9.9571   -4.0573   16.8866 C   0  0  0  0  0  0  0  0  0  0  0  0
    7.6213   -6.5618   16.0087 C   0  0  0  0  0  0  0  0  0  0  0  0
   10.8583   -2.6527   20.7222 C   0  0  0  0  0  0  0  0  0  0  0  0
   10.6412   -3.5089   21.7936 C   0  0  0  0  0  0  0  0  0  0  0  0
   10.4972   -3.8968   24.1589 C   0  0  0  0  0  0  0  0  0  0  0  0
    5.9260   -8.2736   16.5517 C   0  0  0  0  0  0  0  0  0  0  0  0
    3.8816   -9.1166   17.2493 C   0  0  0  0  0  0  0  0  0  0  0  0
   10.1297   -1.6575   23.2324 C   0  0  0  0  0  0  0  0  0  0  0  0
    9.4684   -1.6929   26.7263 F   0  0  0  0  0  0  0  0  0  0  0  0
    7.7963   -7.7906   17.9837 C   0  0  0  0  0  0  0  0  0  0  0  0
   10.5884   -3.0725   16.7902 O   0  0  0  0  0  0  0  0  0  0  0  0
   10.4323   -5.3494   20.3516 C   0  0  0  0  0  0  0  0  0  0  0  0
    7.1156   -7.5454   16.8218 C   0  0  0  0  0  0  0  0  0  0  0  0
   10.3885   -4.4388   19.2773 C   0  0  0  0  0  0  0  0  0  0  0  0
    4.5160   -9.3822   15.0841 C   0  0  0  0  0  0  0  0  0  0  0  0
  1  3  4  0
  1 24  4  0
  2  6  4  0
  2 15  4  0
  3  5  4  0
  3  6  4  0
  4 21  4  0
  4 29  4  0
  5 15  4  0
  5 28  1  0
  6 16  4  0
  7 18  4  0
  7 26  4  0
  8 18  1  0
  8 19  4  0
  8 22  4  0
  9 12  4  0
  9 19  4  0
 10 12  4  0
 10 22  4  0
 11 20  4  0
 11 21  4  0
 12 23  1  0
 13 20  4  0
 13 29  4  0
 14 17  4  0
 14 28  4  0
 15 25  2  0
 16 27  4  0
 17 18  4  0
 20 27  1  0
 24 27  4  0
 26 28  4  0
M  END
$$$$

 Created by Python create_sdf_string function

 29 33  0  0  0  0  0  0  0  0999 V2000
    8.8270   -7.0288   18.4251 C   0  0  0  0  0  0  0  0  0  0  0  0
    9.1576   -4.6236   15.8860 O   0  0  0  0  0  0  0  0  0  0  0  0
    9.1509   -5.9108   17.7177 C   0  0  0  0  0  0  0  0  0  0  0  0
    3.6373   -9.5349   16.0582 N   0  0  0  0  0  0  0  0  0  0  0  0
    9.9275   -4.8001   18.0438 N   0  0  0  0  0  0  0  0  0  0  0  0
    8.5908   -5.7425   16.4412 C   0  0  0  0  0  0  0  0  0  0  0  0
   10.5993   -4.8981   21.6068 C   0  0  0  0  0  0  0  0  0  0  0  0
   10.4258   -3.0106   23.0998 C   0  0  0  0  0  0  0  0  0  0  0  0
   10.2148   -3.4364   25.4200 C   0  0  0  0  0  0  0  0  0  0  0  0
    9.7853   -1.1840   24.4927 C   0  0  0  0  0  0  0  0  0  0  0  0
    5.0276   -8.5227   17.5352 C   0  0  0  0  0  0  0  0  0  0  0  0
    9.8187   -2.0895   25.5800 C   0  0  0  0  0  0  0  0  0  0  0  0
    5.6473   -8.7216   15.3158 C   0  0  0  0  0  0  0  0  0  0  0  0
   10.7581   -3.1233   19.4720 N   0  0  0  0  0  0  0  0  0  0  0  0
    9.9571   -4.0573   16.8866 C   0  0  0  0  0  0  0  0  0  0  0  0
    7.6213   -6.5618   16.0087 C   0  0  0  0  0  0  0  0  0  0  0  0
   10.8583   -2.6527   20.7222 C   0  0  0  0  0  0  0  0  0  0  0  0
   10.6412   -3.5089   21.7936 C   0  0  0  0  0  0  0  0  0  0  0  0
   10.4972   -3.8968   24.1589 C   0  0  0  0  0  0  0  0  0  0  0  0
    5.9260   -8.2736   16.5517 C   0  0  0  0  0  0  0  0  0  0  0  0
    3.8816   -9.1166   17.2493 C   0  0  0  0  0  0  0  0  0  0  0  0
   10.1297   -1.6575   23.2324 C   0  0  0  0  0  0  0  0  0  0  0  0
    9.4684   -1.6929   26.7263 F   0  0  0  0  0  0  0  0  0  0  0  0
    7.7963   -7.7906   17.9837 C   0  0  0  0  0  0  0  0  0  0  0  0
   10.5884   -3.0725   16.7902 O   0  0  0  0  0  0  0  0  0  0  0  0
   10.4323   -5.3494   20.3516 C   0  0  0  0  0  0  0  0  0  0  0  0
    7.1156   -7.5454   16.8218 C   0  0  0  0  0  0  0  0  0  0  0  0
   10.3885   -4.4388   19.2773 C   0  0  0  0  0  0  0  0  0  0  0  0
    4.5160   -9.3822   15.0841 C   0  0  0  0  0  0  0  0  0  0  0  0
  1  3  4  0
  1 24  4  0
  2  6  4  0
  2 15  4  0
  3  5  4  0
  3  6  4  0
  4 21  4  0
  4 29  4  0
  5 15  4  0
  5 28  1  0
  6 16  4  0
  7 18  4  0
  7 26  4  0
  8 18  1  0
  8 19  4  0
  8 22  4  0
  9 12  4  0
  9 19  4  0
 10 12  4  0
 10 22  4  0
 11 20  4  0
 11 21  4  0
 12 23  1  0
 13 20  4  0
 13 29  4  0
 14 17  4  0
 14 28  4  0
 15 25  2  0
 16 27  4  0
 17 18  4  0
 20 27  1  0
 24 27  4  0
 26 28  4  0
M  END
$$$$

 Created by Python create_sdf_string function

 29 33  0  0  0  0  0  0  0  0999 V2000
    8.8270   -7.0288   18.4251 C   0  0  0  0  0  0  0  0  0  0  0  0
    9.1576   -4.6236   15.8860 O   0  0  0  0  0  0  0  0  0  0  0  0
    9.1509   -5.9108   17.7177 C   0  0  0  0  0  0  0  0  0  0  0  0
    3.6373   -9.5349   16.0582 N   0  0  0  0  0  0  0  0  0  0  0  0
    9.9275   -4.8001   18.0438 N   0  0  0  0  0  0  0  0  0  0  0  0
    8.5908   -5.7425   16.4412 C   0  0  0  0  0  0  0  0  0  0  0  0
   10.5993   -4.8981   21.6068 C   0  0  0  0  0  0  0  0  0  0  0  0
   10.4258   -3.0106   23.0998 C   0  0  0  0  0  0  0  0  0  0  0  0
   10.2148   -3.4364   25.4200 C   0  0  0  0  0  0  0  0  0  0  0  0
    9.7853   -1.1840   24.4927 C   0  0  0  0  0  0  0  0  0  0  0  0
    5.0276   -8.5227   17.5352 C   0  0  0  0  0  0  0  0  0  0  0  0
    9.8187   -2.0895   25.5800 C   0  0  0  0  0  0  0  0  0  0  0  0
    5.6473   -8.7216   15.3158 C   0  0  0  0  0  0  0  0  0  0  0  0
   10.7581   -3.1233   19.4720 N   0  0  0  0  0  0  0  0  0  0  0  0
    9.9571   -4.0573   16.8866 C   0  0  0  0  0  0  0  0  0  0  0  0
    7.6213   -6.5618   16.0087 C   0  0  0  0  0  0  0  0  0  0  0  0
   10.8583   -2.6527   20.7222 C   0  0  0  0  0  0  0  0  0  0  0  0
   10.6412   -3.5089   21.7936 C   0  0  0  0  0  0  0  0  0  0  0  0
   10.4972   -3.8968   24.1589 C   0  0  0  0  0  0  0  0  0  0  0  0
    5.9260   -8.2736   16.5517 C   0  0  0  0  0  0  0  0  0  0  0  0
    3.8816   -9.1166   17.2493 C   0  0  0  0  0  0  0  0  0  0  0  0
   10.1297   -1.6575   23.2324 C   0  0  0  0  0  0  0  0  0  0  0  0
    9.4684   -1.6929   26.7263 F   0  0  0  0  0  0  0  0  0  0  0  0
    7.7963   -7.7906   17.9837 C   0  0  0  0  0  0  0  0  0  0  0  0
   10.5884   -3.0725   16.7902 O   0  0  0  0  0  0  0  0  0  0  0  0
   10.4323   -5.3494   20.3516 C   0  0  0  0  0  0  0  0  0  0  0  0
    7.1156   -7.5454   16.8218 C   0  0  0  0  0  0  0  0  0  0  0  0
   10.3885   -4.4388   19.2773 C   0  0  0  0  0  0  0  0  0  0  0  0
    4.5160   -9.3822   15.0841 C   0  0  0  0  0  0  0  0  0  0  0  0
  1  3  4  0
  1 24  4  0
  2  6  4  0
  2 15  4  0
  3  5  4  0
  3  6  4  0
  4 21  4  0
  4 29  4  0
  5 15  4  0
  5 28  1  0
  6 16  4  0
  7 18  4  0
  7 26  4  0
  8 18  1  0
  8 19  4  0
  8 22  4  0
  9 12  4  0
  9 19  4  0
 10 12  4  0
 10 22  4  0
 11 20  4  0
 11 21  4  0
 12 23  1  0
 13 20  4  0
 13 29  4  0
 14 17  4  0
 14 28  4  0
 15 25  2  0
 16 27  4  0
 17 18  4  0
 20 27  1  0
 24 27  4  0
 26 28  4  0
M  END
$$$$

 Created by Python create_sdf_string function

 29 33  0  0  0  0  0  0  0  0999 V2000
    8.8270   -7.0288   18.4251 C   0  0  0  0  0  0  0  0  0  0  0  0
    9.1576   -4.6236   15.8860 O   0  0  0  0  0  0  0  0  0  0  0  0
    9.1509   -5.9108   17.7177 C   0  0  0  0  0  0  0  0  0  0  0  0
    3.6373   -9.5349   16.0582 N   0  0  0  0  0  0  0  0  0  0  0  0
    9.9275   -4.8001   18.0438 N   0  0  0  0  0  0  0  0  0  0  0  0
    8.5908   -5.7425   16.4412 C   0  0  0  0  0  0  0  0  0  0  0  0
   10.5993   -4.8981   21.6068 C   0  0  0  0  0  0  0  0  0  0  0  0
   10.4258   -3.0106   23.0998 C   0  0  0  0  0  0  0  0  0  0  0  0
   10.2148   -3.4364   25.4200 C   0  0  0  0  0  0  0  0  0  0  0  0
    9.7853   -1.1840   24.4927 C   0  0  0  0  0  0  0  0  0  0  0  0
    5.0276   -8.5227   17.5352 C   0  0  0  0  0  0  0  0  0  0  0  0
    9.8187   -2.0895   25.5800 C   0  0  0  0  0  0  0  0  0  0  0  0
    5.6473   -8.7216   15.3158 C   0  0  0  0  0  0  0  0  0  0  0  0
   10.7581   -3.1233   19.4720 N   0  0  0  0  0  0  0  0  0  0  0  0
    9.9571   -4.0573   16.8866 C   0  0  0  0  0  0  0  0  0  0  0  0
    7.6213   -6.5618   16.0087 C   0  0  0  0  0  0  0  0  0  0  0  0
   10.8583   -2.6527   20.7222 C   0  0  0  0  0  0  0  0  0  0  0  0
   10.6412   -3.5089   21.7936 C   0  0  0  0  0  0  0  0  0  0  0  0
   10.4972   -3.8968   24.1589 C   0  0  0  0  0  0  0  0  0  0  0  0
    5.9260   -8.2736   16.5517 C   0  0  0  0  0  0  0  0  0  0  0  0
    3.8816   -9.1166   17.2493 C   0  0  0  0  0  0  0  0  0  0  0  0
   10.1297   -1.6575   23.2324 C   0  0  0  0  0  0  0  0  0  0  0  0
    9.4684   -1.6929   26.7263 F   0  0  0  0  0  0  0  0  0  0  0  0
    7.7963   -7.7906   17.9837 C   0  0  0  0  0  0  0  0  0  0  0  0
   10.5884   -3.0725   16.7902 O   0  0  0  0  0  0  0  0  0  0  0  0
   10.4323   -5.3494   20.3516 C   0  0  0  0  0  0  0  0  0  0  0  0
    7.1156   -7.5454   16.8218 C   0  0  0  0  0  0  0  0  0  0  0  0
   10.3885   -4.4388   19.2773 C   0  0  0  0  0  0  0  0  0  0  0  0
    4.5160   -9.3822   15.0841 C   0  0  0  0  0  0  0  0  0  0  0  0
  1  3  4  0
  1 24  4  0
  2  6  4  0
  2 15  4  0
  3  5  4  0
  3  6  4  0
  4 21  4  0
  4 29  4  0
  5 15  4  0
  5 28  1  0
  6 16  4  0
  7 18  4  0
  7 26  4  0
  8 18  1  0
  8 19  4  0
  8 22  4  0
  9 12  4  0
  9 19  4  0
 10 12  4  0
 10 22  4  0
 11 20  4  0
 11 21  4  0
 12 23  1  0
 13 20  4  0
 13 29  4  0
 14 17  4  0
 14 28  4  0
 15 25  2  0
 16 27  4  0
 17 18  4  0
 20 27  1  0
 24 27  4  0
 26 28  4  0
M  END
$$$$

 Created by Python create_sdf_string function

 29 33  0  0  0  0  0  0  0  0999 V2000
    8.8270   -7.0288   18.4251 C   0  0  0  0  0  0  0  0  0  0  0  0
    9.1576   -4.6236   15.8860 O   0  0  0  0  0  0  0  0  0  0  0  0
    9.1509   -5.9108   17.7177 C   0  0  0  0  0  0  0  0  0  0  0  0
    3.6373   -9.5349   16.0582 N   0  0  0  0  0  0  0  0  0  0  0  0
    9.9275   -4.8001   18.0438 N   0  0  0  0  0  0  0  0  0  0  0  0
    8.5908   -5.7425   16.4412 C   0  0  0  0  0  0  0  0  0  0  0  0
   10.5993   -4.8981   21.6068 C   0  0  0  0  0  0  0  0  0  0  0  0
   10.4258   -3.0106   23.0998 C   0  0  0  0  0  0  0  0  0  0  0  0
   10.2148   -3.4364   25.4200 C   0  0  0  0  0  0  0  0  0  0  0  0
    9.7853   -1.1840   24.4927 C   0  0  0  0  0  0  0  0  0  0  0  0
    5.0276   -8.5227   17.5352 C   0  0  0  0  0  0  0  0  0  0  0  0
    9.8187   -2.0895   25.5800 C   0  0  0  0  0  0  0  0  0  0  0  0
    5.6473   -8.7216   15.3158 C   0  0  0  0  0  0  0  0  0  0  0  0
   10.7581   -3.1233   19.4720 N   0  0  0  0  0  0  0  0  0  0  0  0
    9.9571   -4.0573   16.8866 C   0  0  0  0  0  0  0  0  0  0  0  0
    7.6213   -6.5618   16.0087 C   0  0  0  0  0  0  0  0  0  0  0  0
   10.8583   -2.6527   20.7222 C   0  0  0  0  0  0  0  0  0  0  0  0
   10.6412   -3.5089   21.7936 C   0  0  0  0  0  0  0  0  0  0  0  0
   10.4972   -3.8968   24.1589 C   0  0  0  0  0  0  0  0  0  0  0  0
    5.9260   -8.2736   16.5517 C   0  0  0  0  0  0  0  0  0  0  0  0
    3.8816   -9.1166   17.2493 C   0  0  0  0  0  0  0  0  0  0  0  0
   10.1297   -1.6575   23.2324 C   0  0  0  0  0  0  0  0  0  0  0  0
    9.4684   -1.6929   26.7263 F   0  0  0  0  0  0  0  0  0  0  0  0
    7.7963   -7.7906   17.9837 C   0  0  0  0  0  0  0  0  0  0  0  0
   10.5884   -3.0725   16.7902 O   0  0  0  0  0  0  0  0  0  0  0  0
   10.4323   -5.3494   20.3516 C   0  0  0  0  0  0  0  0  0  0  0  0
    7.1156   -7.5454   16.8218 C   0  0  0  0  0  0  0  0  0  0  0  0
   10.3885   -4.4388   19.2773 C   0  0  0  0  0  0  0  0  0  0  0  0
    4.5160   -9.3822   15.0841 C   0  0  0  0  0  0  0  0  0  0  0  0
  1  3  4  0
  1 24  4  0
  2  6  4  0
  2 15  4  0
  3  5  4  0
  3  6  4  0
  4 21  4  0
  4 29  4  0
  5 15  4  0
  5 28  1  0
  6 16  4  0
  7 18  4  0
  7 26  4  0
  8 18  1  0
  8 19  4  0
  8 22  4  0
  9 12  4  0
  9 19  4  0
 10 12  4  0
 10 22  4  0
 11 20  4  0
 11 21  4  0
 12 23  1  0
 13 20  4  0
 13 29  4  0
 14 17  4  0
 14 28  4  0
 15 25  2  0
 16 27  4  0
 17 18  4  0
 20 27  1  0
 24 27  4  0
 26 28  4  0
M  END
$$$$

 Created by Python create_sdf_string function

 29 33  0  0  0  0  0  0  0  0999 V2000
    8.8270   -7.0288   18.4251 C   0  0  0  0  0  0  0  0  0  0  0  0
    9.1576   -4.6236   15.8860 O   0  0  0  0  0  0  0  0  0  0  0  0
    9.1509   -5.9108   17.7177 C   0  0  0  0  0  0  0  0  0  0  0  0
    3.6373   -9.5349   16.0582 N   0  0  0  0  0  0  0  0  0  0  0  0
    9.9275   -4.8001   18.0438 N   0  0  0  0  0  0  0  0  0  0  0  0
    8.5908   -5.7425   16.4412 C   0  0  0  0  0  0  0  0  0  0  0  0
   10.5993   -4.8981   21.6068 C   0  0  0  0  0  0  0  0  0  0  0  0
   10.4258   -3.0106   23.0998 C   0  0  0  0  0  0  0  0  0  0  0  0
   10.2148   -3.4364   25.4200 C   0  0  0  0  0  0  0  0  0  0  0  0
    9.7853   -1.1840   24.4927 C   0  0  0  0  0  0  0  0  0  0  0  0
    5.0276   -8.5227   17.5352 C   0  0  0  0  0  0  0  0  0  0  0  0
    9.8187   -2.0895   25.5800 C   0  0  0  0  0  0  0  0  0  0  0  0
    5.6473   -8.7216   15.3158 C   0  0  0  0  0  0  0  0  0  0  0  0
   10.7581   -3.1233   19.4720 N   0  0  0  0  0  0  0  0  0  0  0  0
    9.9571   -4.0573   16.8866 C   0  0  0  0  0  0  0  0  0  0  0  0
    7.6213   -6.5618   16.0087 C   0  0  0  0  0  0  0  0  0  0  0  0
   10.8583   -2.6527   20.7222 C   0  0  0  0  0  0  0  0  0  0  0  0
   10.6412   -3.5089   21.7936 C   0  0  0  0  0  0  0  0  0  0  0  0
   10.4972   -3.8968   24.1589 C   0  0  0  0  0  0  0  0  0  0  0  0
    5.9260   -8.2736   16.5517 C   0  0  0  0  0  0  0  0  0  0  0  0
    3.8816   -9.1166   17.2493 C   0  0  0  0  0  0  0  0  0  0  0  0
   10.1297   -1.6575   23.2324 C   0  0  0  0  0  0  0  0  0  0  0  0
    9.4684   -1.6929   26.7263 F   0  0  0  0  0  0  0  0  0  0  0  0
    7.7963   -7.7906   17.9837 C   0  0  0  0  0  0  0  0  0  0  0  0
   10.5884   -3.0725   16.7902 O   0  0  0  0  0  0  0  0  0  0  0  0
   10.4323   -5.3494   20.3516 C   0  0  0  0  0  0  0  0  0  0  0  0
    7.1156   -7.5454   16.8218 C   0  0  0  0  0  0  0  0  0  0  0  0
   10.3885   -4.4388   19.2773 C   0  0  0  0  0  0  0  0  0  0  0  0
    4.5160   -9.3822   15.0841 C   0  0  0  0  0  0  0  0  0  0  0  0
  1  3  4  0
  1 24  4  0
  2  6  4  0
  2 15  4  0
  3  5  4  0
  3  6  4  0
  4 21  4  0
  4 29  4  0
  5 15  4  0
  5 28  1  0
  6 16  4  0
  7 18  4  0
  7 26  4  0
  8 18  1  0
  8 19  4  0
  8 22  4  0
  9 12  4  0
  9 19  4  0
 10 12  4  0
 10 22  4  0
 11 20  4  0
 11 21  4  0
 12 23  1  0
 13 20  4  0
 13 29  4  0
 14 17  4  0
 14 28  4  0
 15 25  2  0
 16 27  4  0
 17 18  4  0
 20 27  1  0
 24 27  4  0
 26 28  4  0
M  END
$$$$

 Created by Python create_sdf_string function

 29 33  0  0  0  0  0  0  0  0999 V2000
    8.8270   -7.0288   18.4251 C   0  0  0  0  0  0  0  0  0  0  0  0
    9.1576   -4.6236   15.8860 O   0  0  0  0  0  0  0  0  0  0  0  0
    9.1509   -5.9108   17.7177 C   0  0  0  0  0  0  0  0  0  0  0  0
    3.6373   -9.5349   16.0582 N   0  0  0  0  0  0  0  0  0  0  0  0
    9.9275   -4.8001   18.0438 N   0  0  0  0  0  0  0  0  0  0  0  0
    8.5908   -5.7425   16.4412 C   0  0  0  0  0  0  0  0  0  0  0  0
   10.5993   -4.8981   21.6068 C   0  0  0  0  0  0  0  0  0  0  0  0
   10.4258   -3.0106   23.0998 C   0  0  0  0  0  0  0  0  0  0  0  0
   10.2148   -3.4364   25.4200 C   0  0  0  0  0  0  0  0  0  0  0  0
    9.7853   -1.1840   24.4927 C   0  0  0  0  0  0  0  0  0  0  0  0
    5.0276   -8.5227   17.5352 C   0  0  0  0  0  0  0  0  0  0  0  0
    9.8187   -2.0895   25.5800 C   0  0  0  0  0  0  0  0  0  0  0  0
    5.6473   -8.7216   15.3158 C   0  0  0  0  0  0  0  0  0  0  0  0
   10.7581   -3.1233   19.4720 N   0  0  0  0  0  0  0  0  0  0  0  0
    9.9571   -4.0573   16.8866 C   0  0  0  0  0  0  0  0  0  0  0  0
    7.6213   -6.5618   16.0087 C   0  0  0  0  0  0  0  0  0  0  0  0
   10.8583   -2.6527   20.7222 C   0  0  0  0  0  0  0  0  0  0  0  0
   10.6412   -3.5089   21.7936 C   0  0  0  0  0  0  0  0  0  0  0  0
   10.4972   -3.8968   24.1589 C   0  0  0  0  0  0  0  0  0  0  0  0
    5.9260   -8.2736   16.5517 C   0  0  0  0  0  0  0  0  0  0  0  0
    3.8816   -9.1166   17.2493 C   0  0  0  0  0  0  0  0  0  0  0  0
   10.1297   -1.6575   23.2324 C   0  0  0  0  0  0  0  0  0  0  0  0
    9.4684   -1.6929   26.7263 F   0  0  0  0  0  0  0  0  0  0  0  0
    7.7963   -7.7906   17.9837 C   0  0  0  0  0  0  0  0  0  0  0  0
   10.5884   -3.0725   16.7902 O   0  0  0  0  0  0  0  0  0  0  0  0
   10.4323   -5.3494   20.3516 C   0  0  0  0  0  0  0  0  0  0  0  0
    7.1156   -7.5454   16.8218 C   0  0  0  0  0  0  0  0  0  0  0  0
   10.3885   -4.4388   19.2773 C   0  0  0  0  0  0  0  0  0  0  0  0
    4.5160   -9.3822   15.0841 C   0  0  0  0  0  0  0  0  0  0  0  0
  1  3  4  0
  1 24  4  0
  2  6  4  0
  2 15  4  0
  3  5  4  0
  3  6  4  0
  4 21  4  0
  4 29  4  0
  5 15  4  0
  5 28  1  0
  6 16  4  0
  7 18  4  0
  7 26  4  0
  8 18  1  0
  8 19  4  0
  8 22  4  0
  9 12  4  0
  9 19  4  0
 10 12  4  0
 10 22  4  0
 11 20  4  0
 11 21  4  0
 12 23  1  0
 13 20  4  0
 13 29  4  0
 14 17  4  0
 14 28  4  0
 15 25  2  0
 16 27  4  0
 17 18  4  0
 20 27  1  0
 24 27  4  0
 26 28  4  0
M  END
$$$$

 Created by Python create_sdf_string function

 29 33  0  0  0  0  0  0  0  0999 V2000
    8.8270   -7.0288   18.4251 C   0  0  0  0  0  0  0  0  0  0  0  0
    9.1576   -4.6236   15.8860 O   0  0  0  0  0  0  0  0  0  0  0  0
    9.1509   -5.9108   17.7177 C   0  0  0  0  0  0  0  0  0  0  0  0
    3.6373   -9.5349   16.0582 N   0  0  0  0  0  0  0  0  0  0  0  0
    9.9275   -4.8001   18.0438 N   0  0  0  0  0  0  0  0  0  0  0  0
    8.5908   -5.7425   16.4412 C   0  0  0  0  0  0  0  0  0  0  0  0
   10.5993   -4.8981   21.6068 C   0  0  0  0  0  0  0  0  0  0  0  0
   10.4258   -3.0106   23.0998 C   0  0  0  0  0  0  0  0  0  0  0  0
   10.2148   -3.4364   25.4200 C   0  0  0  0  0  0  0  0  0  0  0  0
    9.7853   -1.1840   24.4927 C   0  0  0  0  0  0  0  0  0  0  0  0
    5.0276   -8.5227   17.5352 C   0  0  0  0  0  0  0  0  0  0  0  0
    9.8187   -2.0895   25.5800 C   0  0  0  0  0  0  0  0  0  0  0  0
    5.6473   -8.7216   15.3158 C   0  0  0  0  0  0  0  0  0  0  0  0
   10.7581   -3.1233   19.4720 N   0  0  0  0  0  0  0  0  0  0  0  0
    9.9571   -4.0573   16.8866 C   0  0  0  0  0  0  0  0  0  0  0  0
    7.6213   -6.5618   16.0087 C   0  0  0  0  0  0  0  0  0  0  0  0
   10.8583   -2.6527   20.7222 C   0  0  0  0  0  0  0  0  0  0  0  0
   10.6412   -3.5089   21.7936 C   0  0  0  0  0  0  0  0  0  0  0  0
   10.4972   -3.8968   24.1589 C   0  0  0  0  0  0  0  0  0  0  0  0
    5.9260   -8.2736   16.5517 C   0  0  0  0  0  0  0  0  0  0  0  0
    3.8816   -9.1166   17.2493 C   0  0  0  0  0  0  0  0  0  0  0  0
   10.1297   -1.6575   23.2324 C   0  0  0  0  0  0  0  0  0  0  0  0
    9.4684   -1.6929   26.7263 F   0  0  0  0  0  0  0  0  0  0  0  0
    7.7963   -7.7906   17.9837 C   0  0  0  0  0  0  0  0  0  0  0  0
   10.5884   -3.0725   16.7902 O   0  0  0  0  0  0  0  0  0  0  0  0
   10.4323   -5.3494   20.3516 C   0  0  0  0  0  0  0  0  0  0  0  0
    7.1156   -7.5454   16.8218 C   0  0  0  0  0  0  0  0  0  0  0  0
   10.3885   -4.4388   19.2773 C   0  0  0  0  0  0  0  0  0  0  0  0
    4.5160   -9.3822   15.0841 C   0  0  0  0  0  0  0  0  0  0  0  0
  1  3  4  0
  1 24  4  0
  2  6  4  0
  2 15  4  0
  3  5  4  0
  3  6  4  0
  4 21  4  0
  4 29  4  0
  5 15  4  0
  5 28  1  0
  6 16  4  0
  7 18  4  0
  7 26  4  0
  8 18  1  0
  8 19  4  0
  8 22  4  0
  9 12  4  0
  9 19  4  0
 10 12  4  0
 10 22  4  0
 11 20  4  0
 11 21  4  0
 12 23  1  0
 13 20  4  0
 13 29  4  0
 14 17  4  0
 14 28  4  0
 15 25  2  0
 16 27  4  0
 17 18  4  0
 20 27  1  0
 24 27  4  0
 26 28  4  0
M  END
$$$$

 Created by Python create_sdf_string function

 29 33  0  0  0  0  0  0  0  0999 V2000
    8.8270   -7.0288   18.4251 C   0  0  0  0  0  0  0  0  0  0  0  0
    9.1576   -4.6236   15.8860 O   0  0  0  0  0  0  0  0  0  0  0  0
    9.1509   -5.9108   17.7177 C   0  0  0  0  0  0  0  0  0  0  0  0
    3.6373   -9.5349   16.0582 N   0  0  0  0  0  0  0  0  0  0  0  0
    9.9275   -4.8001   18.0438 N   0  0  0  0  0  0  0  0  0  0  0  0
    8.5908   -5.7425   16.4412 C   0  0  0  0  0  0  0  0  0  0  0  0
   10.5993   -4.8981   21.6068 C   0  0  0  0  0  0  0  0  0  0  0  0
   10.4258   -3.0106   23.0998 C   0  0  0  0  0  0  0  0  0  0  0  0
   10.2148   -3.4364   25.4200 C   0  0  0  0  0  0  0  0  0  0  0  0
    9.7853   -1.1840   24.4927 C   0  0  0  0  0  0  0  0  0  0  0  0
    5.0276   -8.5227   17.5352 C   0  0  0  0  0  0  0  0  0  0  0  0
    9.8187   -2.0895   25.5800 C   0  0  0  0  0  0  0  0  0  0  0  0
    5.6473   -8.7216   15.3158 C   0  0  0  0  0  0  0  0  0  0  0  0
   10.7581   -3.1233   19.4720 N   0  0  0  0  0  0  0  0  0  0  0  0
    9.9571   -4.0573   16.8866 C   0  0  0  0  0  0  0  0  0  0  0  0
    7.6213   -6.5618   16.0087 C   0  0  0  0  0  0  0  0  0  0  0  0
   10.8583   -2.6527   20.7222 C   0  0  0  0  0  0  0  0  0  0  0  0
   10.6412   -3.5089   21.7936 C   0  0  0  0  0  0  0  0  0  0  0  0
   10.4972   -3.8968   24.1589 C   0  0  0  0  0  0  0  0  0  0  0  0
    5.9260   -8.2736   16.5517 C   0  0  0  0  0  0  0  0  0  0  0  0
    3.8816   -9.1166   17.2493 C   0  0  0  0  0  0  0  0  0  0  0  0
   10.1297   -1.6575   23.2324 C   0  0  0  0  0  0  0  0  0  0  0  0
    9.4684   -1.6929   26.7263 F   0  0  0  0  0  0  0  0  0  0  0  0
    7.7963   -7.7906   17.9837 C   0  0  0  0  0  0  0  0  0  0  0  0
   10.5884   -3.0725   16.7902 O   0  0  0  0  0  0  0  0  0  0  0  0
   10.4323   -5.3494   20.3516 C   0  0  0  0  0  0  0  0  0  0  0  0
    7.1156   -7.5454   16.8218 C   0  0  0  0  0  0  0  0  0  0  0  0
   10.3885   -4.4388   19.2773 C   0  0  0  0  0  0  0  0  0  0  0  0
    4.5160   -9.3822   15.0841 C   0  0  0  0  0  0  0  0  0  0  0  0
  1  3  4  0
  1 24  4  0
  2  6  4  0
  2 15  4  0
  3  5  4  0
  3  6  4  0
  4 21  4  0
  4 29  4  0
  5 15  4  0
  5 28  1  0
  6 16  4  0
  7 18  4  0
  7 26  4  0
  8 18  1  0
  8 19  4  0
  8 22  4  0
  9 12  4  0
  9 19  4  0
 10 12  4  0
 10 22  4  0
 11 20  4  0
 11 21  4  0
 12 23  1  0
 13 20  4  0
 13 29  4  0
 14 17  4  0
 14 28  4  0
 15 25  2  0
 16 27  4  0
 17 18  4  0
 20 27  1  0
 24 27  4  0
 26 28  4  0
M  END
$$$$

 Created by Python create_sdf_string function

 29 33  0  0  0  0  0  0  0  0999 V2000
    8.8270   -7.0288   18.4251 C   0  0  0  0  0  0  0  0  0  0  0  0
    9.1576   -4.6236   15.8860 O   0  0  0  0  0  0  0  0  0  0  0  0
    9.1509   -5.9108   17.7177 C   0  0  0  0  0  0  0  0  0  0  0  0
    3.6373   -9.5349   16.0582 N   0  0  0  0  0  0  0  0  0  0  0  0
    9.9275   -4.8001   18.0438 N   0  0  0  0  0  0  0  0  0  0  0  0
    8.5908   -5.7425   16.4412 C   0  0  0  0  0  0  0  0  0  0  0  0
   10.5993   -4.8981   21.6068 C   0  0  0  0  0  0  0  0  0  0  0  0
   10.4258   -3.0106   23.0998 C   0  0  0  0  0  0  0  0  0  0  0  0
   10.2148   -3.4364   25.4200 C   0  0  0  0  0  0  0  0  0  0  0  0
    9.7853   -1.1840   24.4927 C   0  0  0  0  0  0  0  0  0  0  0  0
    5.0276   -8.5227   17.5352 C   0  0  0  0  0  0  0  0  0  0  0  0
    9.8187   -2.0895   25.5800 C   0  0  0  0  0  0  0  0  0  0  0  0
    5.6473   -8.7216   15.3158 C   0  0  0  0  0  0  0  0  0  0  0  0
   10.7581   -3.1233   19.4720 N   0  0  0  0  0  0  0  0  0  0  0  0
    9.9571   -4.0573   16.8866 C   0  0  0  0  0  0  0  0  0  0  0  0
    7.6213   -6.5618   16.0087 C   0  0  0  0  0  0  0  0  0  0  0  0
   10.8583   -2.6527   20.7222 C   0  0  0  0  0  0  0  0  0  0  0  0
   10.6412   -3.5089   21.7936 C   0  0  0  0  0  0  0  0  0  0  0  0
   10.4972   -3.8968   24.1589 C   0  0  0  0  0  0  0  0  0  0  0  0
    5.9260   -8.2736   16.5517 C   0  0  0  0  0  0  0  0  0  0  0  0
    3.8816   -9.1166   17.2493 C   0  0  0  0  0  0  0  0  0  0  0  0
   10.1297   -1.6575   23.2324 C   0  0  0  0  0  0  0  0  0  0  0  0
    9.4684   -1.6929   26.7263 F   0  0  0  0  0  0  0  0  0  0  0  0
    7.7963   -7.7906   17.9837 C   0  0  0  0  0  0  0  0  0  0  0  0
   10.5884   -3.0725   16.7902 O   0  0  0  0  0  0  0  0  0  0  0  0
   10.4323   -5.3494   20.3516 C   0  0  0  0  0  0  0  0  0  0  0  0
    7.1156   -7.5454   16.8218 C   0  0  0  0  0  0  0  0  0  0  0  0
   10.3885   -4.4388   19.2773 C   0  0  0  0  0  0  0  0  0  0  0  0
    4.5160   -9.3822   15.0841 C   0  0  0  0  0  0  0  0  0  0  0  0
  1  3  4  0
  1 24  4  0
  2  6  4  0
  2 15  4  0
  3  5  4  0
  3  6  4  0
  4 21  4  0
  4 29  4  0
  5 15  4  0
  5 28  1  0
  6 16  4  0
  7 18  4  0
  7 26  4  0
  8 18  1  0
  8 19  4  0
  8 22  4  0
  9 12  4  0
  9 19  4  0
 10 12  4  0
 10 22  4  0
 11 20  4  0
 11 21  4  0
 12 23  1  0
 13 20  4  0
 13 29  4  0
 14 17  4  0
 14 28  4  0
 15 25  2  0
 16 27  4  0
 17 18  4  0
 20 27  1  0
 24 27  4  0
 26 28  4  0
M  END
$$$$

 Created by Python create_sdf_string function

 29 33  0  0  0  0  0  0  0  0999 V2000
    8.8270   -7.0288   18.4251 C   0  0  0  0  0  0  0  0  0  0  0  0
    9.1576   -4.6236   15.8860 O   0  0  0  0  0  0  0  0  0  0  0  0
    9.1509   -5.9108   17.7177 C   0  0  0  0  0  0  0  0  0  0  0  0
    3.6373   -9.5349   16.0582 N   0  0  0  0  0  0  0  0  0  0  0  0
    9.9275   -4.8001   18.0438 N   0  0  0  0  0  0  0  0  0  0  0  0
    8.5908   -5.7425   16.4412 C   0  0  0  0  0  0  0  0  0  0  0  0
   10.5993   -4.8981   21.6068 C   0  0  0  0  0  0  0  0  0  0  0  0
   10.4258   -3.0106   23.0998 C   0  0  0  0  0  0  0  0  0  0  0  0
   10.2148   -3.4364   25.4200 C   0  0  0  0  0  0  0  0  0  0  0  0
    9.7853   -1.1840   24.4927 C   0  0  0  0  0  0  0  0  0  0  0  0
    5.0276   -8.5227   17.5352 C   0  0  0  0  0  0  0  0  0  0  0  0
    9.8187   -2.0895   25.5800 C   0  0  0  0  0  0  0  0  0  0  0  0
    5.6473   -8.7216   15.3158 C   0  0  0  0  0  0  0  0  0  0  0  0
   10.7581   -3.1233   19.4720 N   0  0  0  0  0  0  0  0  0  0  0  0
    9.9571   -4.0573   16.8866 C   0  0  0  0  0  0  0  0  0  0  0  0
    7.6213   -6.5618   16.0087 C   0  0  0  0  0  0  0  0  0  0  0  0
   10.8583   -2.6527   20.7222 C   0  0  0  0  0  0  0  0  0  0  0  0
   10.6412   -3.5089   21.7936 C   0  0  0  0  0  0  0  0  0  0  0  0
   10.4972   -3.8968   24.1589 C   0  0  0  0  0  0  0  0  0  0  0  0
    5.9260   -8.2736   16.5517 C   0  0  0  0  0  0  0  0  0  0  0  0
    3.8816   -9.1166   17.2493 C   0  0  0  0  0  0  0  0  0  0  0  0
   10.1297   -1.6575   23.2324 C   0  0  0  0  0  0  0  0  0  0  0  0
    9.4684   -1.6929   26.7263 F   0  0  0  0  0  0  0  0  0  0  0  0
    7.7963   -7.7906   17.9837 C   0  0  0  0  0  0  0  0  0  0  0  0
   10.5884   -3.0725   16.7902 O   0  0  0  0  0  0  0  0  0  0  0  0
   10.4323   -5.3494   20.3516 C   0  0  0  0  0  0  0  0  0  0  0  0
    7.1156   -7.5454   16.8218 C   0  0  0  0  0  0  0  0  0  0  0  0
   10.3885   -4.4388   19.2773 C   0  0  0  0  0  0  0  0  0  0  0  0
    4.5160   -9.3822   15.0841 C   0  0  0  0  0  0  0  0  0  0  0  0
  1  3  4  0
  1 24  4  0
  2  6  4  0
  2 15  4  0
  3  5  4  0
  3  6  4  0
  4 21  4  0
  4 29  4  0
  5 15  4  0
  5 28  1  0
  6 16  4  0
  7 18  4  0
  7 26  4  0
  8 18  1  0
  8 19  4  0
  8 22  4  0
  9 12  4  0
  9 19  4  0
 10 12  4  0
 10 22  4  0
 11 20  4  0
 11 21  4  0
 12 23  1  0
 13 20  4  0
 13 29  4  0
 14 17  4  0
 14 28  4  0
 15 25  2  0
 16 27  4  0
 17 18  4  0
 20 27  1  0
 24 27  4  0
 26 28  4  0
M  END
$$$$

 Created by Python create_sdf_string function

 29 33  0  0  0  0  0  0  0  0999 V2000
    8.8270   -7.0288   18.4251 C   0  0  0  0  0  0  0  0  0  0  0  0
    9.1576   -4.6236   15.8860 O   0  0  0  0  0  0  0  0  0  0  0  0
    9.1509   -5.9108   17.7177 C   0  0  0  0  0  0  0  0  0  0  0  0
    3.6373   -9.5349   16.0582 N   0  0  0  0  0  0  0  0  0  0  0  0
    9.9275   -4.8001   18.0438 N   0  0  0  0  0  0  0  0  0  0  0  0
    8.5908   -5.7425   16.4412 C   0  0  0  0  0  0  0  0  0  0  0  0
   10.5993   -4.8981   21.6068 C   0  0  0  0  0  0  0  0  0  0  0  0
   10.4258   -3.0106   23.0998 C   0  0  0  0  0  0  0  0  0  0  0  0
   10.2148   -3.4364   25.4200 C   0  0  0  0  0  0  0  0  0  0  0  0
    9.7853   -1.1840   24.4927 C   0  0  0  0  0  0  0  0  0  0  0  0
    5.0276   -8.5227   17.5352 C   0  0  0  0  0  0  0  0  0  0  0  0
    9.8187   -2.0895   25.5800 C   0  0  0  0  0  0  0  0  0  0  0  0
    5.6473   -8.7216   15.3158 C   0  0  0  0  0  0  0  0  0  0  0  0
   10.7581   -3.1233   19.4720 N   0  0  0  0  0  0  0  0  0  0  0  0
    9.9571   -4.0573   16.8866 C   0  0  0  0  0  0  0  0  0  0  0  0
    7.6213   -6.5618   16.0087 C   0  0  0  0  0  0  0  0  0  0  0  0
   10.8583   -2.6527   20.7222 C   0  0  0  0  0  0  0  0  0  0  0  0
   10.6412   -3.5089   21.7936 C   0  0  0  0  0  0  0  0  0  0  0  0
   10.4972   -3.8968   24.1589 C   0  0  0  0  0  0  0  0  0  0  0  0
    5.9260   -8.2736   16.5517 C   0  0  0  0  0  0  0  0  0  0  0  0
    3.8816   -9.1166   17.2493 C   0  0  0  0  0  0  0  0  0  0  0  0
   10.1297   -1.6575   23.2324 C   0  0  0  0  0  0  0  0  0  0  0  0
    9.4684   -1.6929   26.7263 F   0  0  0  0  0  0  0  0  0  0  0  0
    7.7963   -7.7906   17.9837 C   0  0  0  0  0  0  0  0  0  0  0  0
   10.5884   -3.0725   16.7902 O   0  0  0  0  0  0  0  0  0  0  0  0
   10.4323   -5.3494   20.3516 C   0  0  0  0  0  0  0  0  0  0  0  0
    7.1156   -7.5454   16.8218 C   0  0  0  0  0  0  0  0  0  0  0  0
   10.3885   -4.4388   19.2773 C   0  0  0  0  0  0  0  0  0  0  0  0
    4.5160   -9.3822   15.0841 C   0  0  0  0  0  0  0  0  0  0  0  0
  1  3  4  0
  1 24  4  0
  2  6  4  0
  2 15  4  0
  3  5  4  0
  3  6  4  0
  4 21  4  0
  4 29  4  0
  5 15  4  0
  5 28  1  0
  6 16  4  0
  7 18  4  0
  7 26  4  0
  8 18  1  0
  8 19  4  0
  8 22  4  0
  9 12  4  0
  9 19  4  0
 10 12  4  0
 10 22  4  0
 11 20  4  0
 11 21  4  0
 12 23  1  0
 13 20  4  0
 13 29  4  0
 14 17  4  0
 14 28  4  0
 15 25  2  0
 16 27  4  0
 17 18  4  0
 20 27  1  0
 24 27  4  0
 26 28  4  0
M  END
$$$$

 Created by Python create_sdf_string function

 29 33  0  0  0  0  0  0  0  0999 V2000
    8.8270   -7.0288   18.4251 C   0  0  0  0  0  0  0  0  0  0  0  0
    9.1576   -4.6236   15.8860 O   0  0  0  0  0  0  0  0  0  0  0  0
    9.1509   -5.9108   17.7177 C   0  0  0  0  0  0  0  0  0  0  0  0
    3.6373   -9.5349   16.0582 N   0  0  0  0  0  0  0  0  0  0  0  0
    9.9275   -4.8001   18.0438 N   0  0  0  0  0  0  0  0  0  0  0  0
    8.5908   -5.7425   16.4412 C   0  0  0  0  0  0  0  0  0  0  0  0
   10.5993   -4.8981   21.6068 C   0  0  0  0  0  0  0  0  0  0  0  0
   10.4258   -3.0106   23.0998 C   0  0  0  0  0  0  0  0  0  0  0  0
   10.2148   -3.4364   25.4200 C   0  0  0  0  0  0  0  0  0  0  0  0
    9.7853   -1.1840   24.4927 C   0  0  0  0  0  0  0  0  0  0  0  0
    5.0276   -8.5227   17.5352 C   0  0  0  0  0  0  0  0  0  0  0  0
    9.8187   -2.0895   25.5800 C   0  0  0  0  0  0  0  0  0  0  0  0
    5.6473   -8.7216   15.3158 C   0  0  0  0  0  0  0  0  0  0  0  0
   10.7581   -3.1233   19.4720 N   0  0  0  0  0  0  0  0  0  0  0  0
    9.9571   -4.0573   16.8866 C   0  0  0  0  0  0  0  0  0  0  0  0
    7.6213   -6.5618   16.0087 C   0  0  0  0  0  0  0  0  0  0  0  0
   10.8583   -2.6527   20.7222 C   0  0  0  0  0  0  0  0  0  0  0  0
   10.6412   -3.5089   21.7936 C   0  0  0  0  0  0  0  0  0  0  0  0
   10.4972   -3.8968   24.1589 C   0  0  0  0  0  0  0  0  0  0  0  0
    5.9260   -8.2736   16.5517 C   0  0  0  0  0  0  0  0  0  0  0  0
    3.8816   -9.1166   17.2493 C   0  0  0  0  0  0  0  0  0  0  0  0
   10.1297   -1.6575   23.2324 C   0  0  0  0  0  0  0  0  0  0  0  0
    9.4684   -1.6929   26.7263 F   0  0  0  0  0  0  0  0  0  0  0  0
    7.7963   -7.7906   17.9837 C   0  0  0  0  0  0  0  0  0  0  0  0
   10.5884   -3.0725   16.7902 O   0  0  0  0  0  0  0  0  0  0  0  0
   10.4323   -5.3494   20.3516 C   0  0  0  0  0  0  0  0  0  0  0  0
    7.1156   -7.5454   16.8218 C   0  0  0  0  0  0  0  0  0  0  0  0
   10.3885   -4.4388   19.2773 C   0  0  0  0  0  0  0  0  0  0  0  0
    4.5160   -9.3822   15.0841 C   0  0  0  0  0  0  0  0  0  0  0  0
  1  3  4  0
  1 24  4  0
  2  6  4  0
  2 15  4  0
  3  5  4  0
  3  6  4  0
  4 21  4  0
  4 29  4  0
  5 15  4  0
  5 28  1  0
  6 16  4  0
  7 18  4  0
  7 26  4  0
  8 18  1  0
  8 19  4  0
  8 22  4  0
  9 12  4  0
  9 19  4  0
 10 12  4  0
 10 22  4  0
 11 20  4  0
 11 21  4  0
 12 23  1  0
 13 20  4  0
 13 29  4  0
 14 17  4  0
 14 28  4  0
 15 25  2  0
 16 27  4  0
 17 18  4  0
 20 27  1  0
 24 27  4  0
 26 28  4  0
M  END
$$$$

 Created by Python create_sdf_string function

 29 33  0  0  0  0  0  0  0  0999 V2000
    8.8270   -7.0288   18.4251 C   0  0  0  0  0  0  0  0  0  0  0  0
    9.1576   -4.6236   15.8860 O   0  0  0  0  0  0  0  0  0  0  0  0
    9.1509   -5.9108   17.7177 C   0  0  0  0  0  0  0  0  0  0  0  0
    3.6373   -9.5349   16.0582 N   0  0  0  0  0  0  0  0  0  0  0  0
    9.9275   -4.8001   18.0438 N   0  0  0  0  0  0  0  0  0  0  0  0
    8.5908   -5.7425   16.4412 C   0  0  0  0  0  0  0  0  0  0  0  0
   10.5993   -4.8981   21.6068 C   0  0  0  0  0  0  0  0  0  0  0  0
   10.4258   -3.0106   23.0998 C   0  0  0  0  0  0  0  0  0  0  0  0
   10.2148   -3.4364   25.4200 C   0  0  0  0  0  0  0  0  0  0  0  0
    9.7853   -1.1840   24.4927 C   0  0  0  0  0  0  0  0  0  0  0  0
    5.0276   -8.5227   17.5352 C   0  0  0  0  0  0  0  0  0  0  0  0
    9.8187   -2.0895   25.5800 C   0  0  0  0  0  0  0  0  0  0  0  0
    5.6473   -8.7216   15.3158 C   0  0  0  0  0  0  0  0  0  0  0  0
   10.7581   -3.1233   19.4720 N   0  0  0  0  0  0  0  0  0  0  0  0
    9.9571   -4.0573   16.8866 C   0  0  0  0  0  0  0  0  0  0  0  0
    7.6213   -6.5618   16.0087 C   0  0  0  0  0  0  0  0  0  0  0  0
   10.8583   -2.6527   20.7222 C   0  0  0  0  0  0  0  0  0  0  0  0
   10.6412   -3.5089   21.7936 C   0  0  0  0  0  0  0  0  0  0  0  0
   10.4972   -3.8968   24.1589 C   0  0  0  0  0  0  0  0  0  0  0  0
    5.9260   -8.2736   16.5517 C   0  0  0  0  0  0  0  0  0  0  0  0
    3.8816   -9.1166   17.2493 C   0  0  0  0  0  0  0  0  0  0  0  0
   10.1297   -1.6575   23.2324 C   0  0  0  0  0  0  0  0  0  0  0  0
    9.4684   -1.6929   26.7263 F   0  0  0  0  0  0  0  0  0  0  0  0
    7.7963   -7.7906   17.9837 C   0  0  0  0  0  0  0  0  0  0  0  0
   10.5884   -3.0725   16.7902 O   0  0  0  0  0  0  0  0  0  0  0  0
   10.4323   -5.3494   20.3516 C   0  0  0  0  0  0  0  0  0  0  0  0
    7.1156   -7.5454   16.8218 C   0  0  0  0  0  0  0  0  0  0  0  0
   10.3885   -4.4388   19.2773 C   0  0  0  0  0  0  0  0  0  0  0  0
    4.5160   -9.3822   15.0841 C   0  0  0  0  0  0  0  0  0  0  0  0
  1  3  4  0
  1 24  4  0
  2  6  4  0
  2 15  4  0
  3  5  4  0
  3  6  4  0
  4 21  4  0
  4 29  4  0
  5 15  4  0
  5 28  1  0
  6 16  4  0
  7 18  4  0
  7 26  4  0
  8 18  1  0
  8 19  4  0
  8 22  4  0
  9 12  4  0
  9 19  4  0
 10 12  4  0
 10 22  4  0
 11 20  4  0
 11 21  4  0
 12 23  1  0
 13 20  4  0
 13 29  4  0
 14 17  4  0
 14 28  4  0
 15 25  2  0
 16 27  4  0
 17 18  4  0
 20 27  1  0
 24 27  4  0
 26 28  4  0
M  END
$$$$

 Created by Python create_sdf_string function

 29 33  0  0  0  0  0  0  0  0999 V2000
    8.8270   -7.0288   18.4251 C   0  0  0  0  0  0  0  0  0  0  0  0
    9.1576   -4.6236   15.8860 O   0  0  0  0  0  0  0  0  0  0  0  0
    9.1509   -5.9108   17.7177 C   0  0  0  0  0  0  0  0  0  0  0  0
    3.6373   -9.5349   16.0582 N   0  0  0  0  0  0  0  0  0  0  0  0
    9.9275   -4.8001   18.0438 N   0  0  0  0  0  0  0  0  0  0  0  0
    8.5908   -5.7425   16.4412 C   0  0  0  0  0  0  0  0  0  0  0  0
   10.5993   -4.8981   21.6068 C   0  0  0  0  0  0  0  0  0  0  0  0
   10.4258   -3.0106   23.0998 C   0  0  0  0  0  0  0  0  0  0  0  0
   10.2148   -3.4364   25.4200 C   0  0  0  0  0  0  0  0  0  0  0  0
    9.7853   -1.1840   24.4927 C   0  0  0  0  0  0  0  0  0  0  0  0
    5.0276   -8.5227   17.5352 C   0  0  0  0  0  0  0  0  0  0  0  0
    9.8187   -2.0895   25.5800 C   0  0  0  0  0  0  0  0  0  0  0  0
    5.6473   -8.7216   15.3158 C   0  0  0  0  0  0  0  0  0  0  0  0
   10.7581   -3.1233   19.4720 N   0  0  0  0  0  0  0  0  0  0  0  0
    9.9571   -4.0573   16.8866 C   0  0  0  0  0  0  0  0  0  0  0  0
    7.6213   -6.5618   16.0087 C   0  0  0  0  0  0  0  0  0  0  0  0
   10.8583   -2.6527   20.7222 C   0  0  0  0  0  0  0  0  0  0  0  0
   10.6412   -3.5089   21.7936 C   0  0  0  0  0  0  0  0  0  0  0  0
   10.4972   -3.8968   24.1589 C   0  0  0  0  0  0  0  0  0  0  0  0
    5.9260   -8.2736   16.5517 C   0  0  0  0  0  0  0  0  0  0  0  0
    3.8816   -9.1166   17.2493 C   0  0  0  0  0  0  0  0  0  0  0  0
   10.1297   -1.6575   23.2324 C   0  0  0  0  0  0  0  0  0  0  0  0
    9.4684   -1.6929   26.7263 F   0  0  0  0  0  0  0  0  0  0  0  0
    7.7963   -7.7906   17.9837 C   0  0  0  0  0  0  0  0  0  0  0  0
   10.5884   -3.0725   16.7902 O   0  0  0  0  0  0  0  0  0  0  0  0
   10.4323   -5.3494   20.3516 C   0  0  0  0  0  0  0  0  0  0  0  0
    7.1156   -7.5454   16.8218 C   0  0  0  0  0  0  0  0  0  0  0  0
   10.3885   -4.4388   19.2773 C   0  0  0  0  0  0  0  0  0  0  0  0
    4.5160   -9.3822   15.0841 C   0  0  0  0  0  0  0  0  0  0  0  0
  1  3  4  0
  1 24  4  0
  2  6  4  0
  2 15  4  0
  3  5  4  0
  3  6  4  0
  4 21  4  0
  4 29  4  0
  5 15  4  0
  5 28  1  0
  6 16  4  0
  7 18  4  0
  7 26  4  0
  8 18  1  0
  8 19  4  0
  8 22  4  0
  9 12  4  0
  9 19  4  0
 10 12  4  0
 10 22  4  0
 11 20  4  0
 11 21  4  0
 12 23  1  0
 13 20  4  0
 13 29  4  0
 14 17  4  0
 14 28  4  0
 15 25  2  0
 16 27  4  0
 17 18  4  0
 20 27  1  0
 24 27  4  0
 26 28  4  0
M  END
$$$$

 Created by Python create_sdf_string function

 29 33  0  0  0  0  0  0  0  0999 V2000
    8.8270   -7.0288   18.4251 C   0  0  0  0  0  0  0  0  0  0  0  0
    9.1576   -4.6236   15.8860 O   0  0  0  0  0  0  0  0  0  0  0  0
    9.1509   -5.9108   17.7177 C   0  0  0  0  0  0  0  0  0  0  0  0
    3.6373   -9.5349   16.0582 N   0  0  0  0  0  0  0  0  0  0  0  0
    9.9275   -4.8001   18.0438 N   0  0  0  0  0  0  0  0  0  0  0  0
    8.5908   -5.7425   16.4412 C   0  0  0  0  0  0  0  0  0  0  0  0
   10.5993   -4.8981   21.6068 C   0  0  0  0  0  0  0  0  0  0  0  0
   10.4258   -3.0106   23.0998 C   0  0  0  0  0  0  0  0  0  0  0  0
   10.2148   -3.4364   25.4200 C   0  0  0  0  0  0  0  0  0  0  0  0
    9.7853   -1.1840   24.4927 C   0  0  0  0  0  0  0  0  0  0  0  0
    5.0276   -8.5227   17.5352 C   0  0  0  0  0  0  0  0  0  0  0  0
    9.8187   -2.0895   25.5800 C   0  0  0  0  0  0  0  0  0  0  0  0
    5.6473   -8.7216   15.3158 C   0  0  0  0  0  0  0  0  0  0  0  0
   10.7581   -3.1233   19.4720 N   0  0  0  0  0  0  0  0  0  0  0  0
    9.9571   -4.0573   16.8866 C   0  0  0  0  0  0  0  0  0  0  0  0
    7.6213   -6.5618   16.0087 C   0  0  0  0  0  0  0  0  0  0  0  0
   10.8583   -2.6527   20.7222 C   0  0  0  0  0  0  0  0  0  0  0  0
   10.6412   -3.5089   21.7936 C   0  0  0  0  0  0  0  0  0  0  0  0
   10.4972   -3.8968   24.1589 C   0  0  0  0  0  0  0  0  0  0  0  0
    5.9260   -8.2736   16.5517 C   0  0  0  0  0  0  0  0  0  0  0  0
    3.8816   -9.1166   17.2493 C   0  0  0  0  0  0  0  0  0  0  0  0
   10.1297   -1.6575   23.2324 C   0  0  0  0  0  0  0  0  0  0  0  0
    9.4684   -1.6929   26.7263 F   0  0  0  0  0  0  0  0  0  0  0  0
    7.7963   -7.7906   17.9837 C   0  0  0  0  0  0  0  0  0  0  0  0
   10.5884   -3.0725   16.7902 O   0  0  0  0  0  0  0  0  0  0  0  0
   10.4323   -5.3494   20.3516 C   0  0  0  0  0  0  0  0  0  0  0  0
    7.1156   -7.5454   16.8218 C   0  0  0  0  0  0  0  0  0  0  0  0
   10.3885   -4.4388   19.2773 C   0  0  0  0  0  0  0  0  0  0  0  0
    4.5160   -9.3822   15.0841 C   0  0  0  0  0  0  0  0  0  0  0  0
  1  3  4  0
  1 24  4  0
  2  6  4  0
  2 15  4  0
  3  5  4  0
  3  6  4  0
  4 21  4  0
  4 29  4  0
  5 15  4  0
  5 28  1  0
  6 16  4  0
  7 18  4  0
  7 26  4  0
  8 18  1  0
  8 19  4  0
  8 22  4  0
  9 12  4  0
  9 19  4  0
 10 12  4  0
 10 22  4  0
 11 20  4  0
 11 21  4  0
 12 23  1  0
 13 20  4  0
 13 29  4  0
 14 17  4  0
 14 28  4  0
 15 25  2  0
 16 27  4  0
 17 18  4  0
 20 27  1  0
 24 27  4  0
 26 28  4  0
M  END
$$$$

 Created by Python create_sdf_string function

 29 33  0  0  0  0  0  0  0  0999 V2000
    8.8270   -7.0288   18.4251 C   0  0  0  0  0  0  0  0  0  0  0  0
    9.1576   -4.6236   15.8860 O   0  0  0  0  0  0  0  0  0  0  0  0
    9.1509   -5.9108   17.7177 C   0  0  0  0  0  0  0  0  0  0  0  0
    3.6373   -9.5349   16.0582 N   0  0  0  0  0  0  0  0  0  0  0  0
    9.9275   -4.8001   18.0438 N   0  0  0  0  0  0  0  0  0  0  0  0
    8.5908   -5.7425   16.4412 C   0  0  0  0  0  0  0  0  0  0  0  0
   10.5993   -4.8981   21.6068 C   0  0  0  0  0  0  0  0  0  0  0  0
   10.4258   -3.0106   23.0998 C   0  0  0  0  0  0  0  0  0  0  0  0
   10.2148   -3.4364   25.4200 C   0  0  0  0  0  0  0  0  0  0  0  0
    9.7853   -1.1840   24.4927 C   0  0  0  0  0  0  0  0  0  0  0  0
    5.0276   -8.5227   17.5352 C   0  0  0  0  0  0  0  0  0  0  0  0
    9.8187   -2.0895   25.5800 C   0  0  0  0  0  0  0  0  0  0  0  0
    5.6473   -8.7216   15.3158 C   0  0  0  0  0  0  0  0  0  0  0  0
   10.7581   -3.1233   19.4720 N   0  0  0  0  0  0  0  0  0  0  0  0
    9.9571   -4.0573   16.8866 C   0  0  0  0  0  0  0  0  0  0  0  0
    7.6213   -6.5618   16.0087 C   0  0  0  0  0  0  0  0  0  0  0  0
   10.8583   -2.6527   20.7222 C   0  0  0  0  0  0  0  0  0  0  0  0
   10.6412   -3.5089   21.7936 C   0  0  0  0  0  0  0  0  0  0  0  0
   10.4972   -3.8968   24.1589 C   0  0  0  0  0  0  0  0  0  0  0  0
    5.9260   -8.2736   16.5517 C   0  0  0  0  0  0  0  0  0  0  0  0
    3.8816   -9.1166   17.2493 C   0  0  0  0  0  0  0  0  0  0  0  0
   10.1297   -1.6575   23.2324 C   0  0  0  0  0  0  0  0  0  0  0  0
    9.4684   -1.6929   26.7263 F   0  0  0  0  0  0  0  0  0  0  0  0
    7.7963   -7.7906   17.9837 C   0  0  0  0  0  0  0  0  0  0  0  0
   10.5884   -3.0725   16.7902 O   0  0  0  0  0  0  0  0  0  0  0  0
   10.4323   -5.3494   20.3516 C   0  0  0  0  0  0  0  0  0  0  0  0
    7.1156   -7.5454   16.8218 C   0  0  0  0  0  0  0  0  0  0  0  0
   10.3885   -4.4388   19.2773 C   0  0  0  0  0  0  0  0  0  0  0  0
    4.5160   -9.3822   15.0841 C   0  0  0  0  0  0  0  0  0  0  0  0
  1  3  4  0
  1 24  4  0
  2  6  4  0
  2 15  4  0
  3  5  4  0
  3  6  4  0
  4 21  4  0
  4 29  4  0
  5 15  4  0
  5 28  1  0
  6 16  4  0
  7 18  4  0
  7 26  4  0
  8 18  1  0
  8 19  4  0
  8 22  4  0
  9 12  4  0
  9 19  4  0
 10 12  4  0
 10 22  4  0
 11 20  4  0
 11 21  4  0
 12 23  1  0
 13 20  4  0
 13 29  4  0
 14 17  4  0
 14 28  4  0
 15 25  2  0
 16 27  4  0
 17 18  4  0
 20 27  1  0
 24 27  4  0
 26 28  4  0
M  END
$$$$

 Created by Python create_sdf_string function

 29 33  0  0  0  0  0  0  0  0999 V2000
    8.8270   -7.0288   18.4251 C   0  0  0  0  0  0  0  0  0  0  0  0
    9.1576   -4.6236   15.8860 O   0  0  0  0  0  0  0  0  0  0  0  0
    9.1509   -5.9108   17.7177 C   0  0  0  0  0  0  0  0  0  0  0  0
    3.6373   -9.5349   16.0582 N   0  0  0  0  0  0  0  0  0  0  0  0
    9.9275   -4.8001   18.0438 N   0  0  0  0  0  0  0  0  0  0  0  0
    8.5908   -5.7425   16.4412 C   0  0  0  0  0  0  0  0  0  0  0  0
   10.5993   -4.8981   21.6068 C   0  0  0  0  0  0  0  0  0  0  0  0
   10.4258   -3.0106   23.0998 C   0  0  0  0  0  0  0  0  0  0  0  0
   10.2148   -3.4364   25.4200 C   0  0  0  0  0  0  0  0  0  0  0  0
    9.7853   -1.1840   24.4927 C   0  0  0  0  0  0  0  0  0  0  0  0
    5.0276   -8.5227   17.5352 C   0  0  0  0  0  0  0  0  0  0  0  0
    9.8187   -2.0895   25.5800 C   0  0  0  0  0  0  0  0  0  0  0  0
    5.6473   -8.7216   15.3158 C   0  0  0  0  0  0  0  0  0  0  0  0
   10.7581   -3.1233   19.4720 N   0  0  0  0  0  0  0  0  0  0  0  0
    9.9571   -4.0573   16.8866 C   0  0  0  0  0  0  0  0  0  0  0  0
    7.6213   -6.5618   16.0087 C   0  0  0  0  0  0  0  0  0  0  0  0
   10.8583   -2.6527   20.7222 C   0  0  0  0  0  0  0  0  0  0  0  0
   10.6412   -3.5089   21.7936 C   0  0  0  0  0  0  0  0  0  0  0  0
   10.4972   -3.8968   24.1589 C   0  0  0  0  0  0  0  0  0  0  0  0
    5.9260   -8.2736   16.5517 C   0  0  0  0  0  0  0  0  0  0  0  0
    3.8816   -9.1166   17.2493 C   0  0  0  0  0  0  0  0  0  0  0  0
   10.1297   -1.6575   23.2324 C   0  0  0  0  0  0  0  0  0  0  0  0
    9.4684   -1.6929   26.7263 F   0  0  0  0  0  0  0  0  0  0  0  0
    7.7963   -7.7906   17.9837 C   0  0  0  0  0  0  0  0  0  0  0  0
   10.5884   -3.0725   16.7902 O   0  0  0  0  0  0  0  0  0  0  0  0
   10.4323   -5.3494   20.3516 C   0  0  0  0  0  0  0  0  0  0  0  0
    7.1156   -7.5454   16.8218 C   0  0  0  0  0  0  0  0  0  0  0  0
   10.3885   -4.4388   19.2773 C   0  0  0  0  0  0  0  0  0  0  0  0
    4.5160   -9.3822   15.0841 C   0  0  0  0  0  0  0  0  0  0  0  0
  1  3  4  0
  1 24  4  0
  2  6  4  0
  2 15  4  0
  3  5  4  0
  3  6  4  0
  4 21  4  0
  4 29  4  0
  5 15  4  0
  5 28  1  0
  6 16  4  0
  7 18  4  0
  7 26  4  0
  8 18  1  0
  8 19  4  0
  8 22  4  0
  9 12  4  0
  9 19  4  0
 10 12  4  0
 10 22  4  0
 11 20  4  0
 11 21  4  0
 12 23  1  0
 13 20  4  0
 13 29  4  0
 14 17  4  0
 14 28  4  0
 15 25  2  0
 16 27  4  0
 17 18  4  0
 20 27  1  0
 24 27  4  0
 26 28  4  0
M  END
$$$$

 Created by Python create_sdf_string function

 29 33  0  0  0  0  0  0  0  0999 V2000
    8.8270   -7.0288   18.4251 C   0  0  0  0  0  0  0  0  0  0  0  0
    9.1576   -4.6236   15.8860 O   0  0  0  0  0  0  0  0  0  0  0  0
    9.1509   -5.9108   17.7177 C   0  0  0  0  0  0  0  0  0  0  0  0
    3.6373   -9.5349   16.0582 N   0  0  0  0  0  0  0  0  0  0  0  0
    9.9275   -4.8001   18.0438 N   0  0  0  0  0  0  0  0  0  0  0  0
    8.5908   -5.7425   16.4412 C   0  0  0  0  0  0  0  0  0  0  0  0
   10.5993   -4.8981   21.6068 C   0  0  0  0  0  0  0  0  0  0  0  0
   10.4258   -3.0106   23.0998 C   0  0  0  0  0  0  0  0  0  0  0  0
   10.2148   -3.4364   25.4200 C   0  0  0  0  0  0  0  0  0  0  0  0
    9.7853   -1.1840   24.4927 C   0  0  0  0  0  0  0  0  0  0  0  0
    5.0276   -8.5227   17.5352 C   0  0  0  0  0  0  0  0  0  0  0  0
    9.8187   -2.0895   25.5800 C   0  0  0  0  0  0  0  0  0  0  0  0
    5.6473   -8.7216   15.3158 C   0  0  0  0  0  0  0  0  0  0  0  0
   10.7581   -3.1233   19.4720 N   0  0  0  0  0  0  0  0  0  0  0  0
    9.9571   -4.0573   16.8866 C   0  0  0  0  0  0  0  0  0  0  0  0
    7.6213   -6.5618   16.0087 C   0  0  0  0  0  0  0  0  0  0  0  0
   10.8583   -2.6527   20.7222 C   0  0  0  0  0  0  0  0  0  0  0  0
   10.6412   -3.5089   21.7936 C   0  0  0  0  0  0  0  0  0  0  0  0
   10.4972   -3.8968   24.1589 C   0  0  0  0  0  0  0  0  0  0  0  0
    5.9260   -8.2736   16.5517 C   0  0  0  0  0  0  0  0  0  0  0  0
    3.8816   -9.1166   17.2493 C   0  0  0  0  0  0  0  0  0  0  0  0
   10.1297   -1.6575   23.2324 C   0  0  0  0  0  0  0  0  0  0  0  0
    9.4684   -1.6929   26.7263 F   0  0  0  0  0  0  0  0  0  0  0  0
    7.7963   -7.7906   17.9837 C   0  0  0  0  0  0  0  0  0  0  0  0
   10.5884   -3.0725   16.7902 O   0  0  0  0  0  0  0  0  0  0  0  0
   10.4323   -5.3494   20.3516 C   0  0  0  0  0  0  0  0  0  0  0  0
    7.1156   -7.5454   16.8218 C   0  0  0  0  0  0  0  0  0  0  0  0
   10.3885   -4.4388   19.2773 C   0  0  0  0  0  0  0  0  0  0  0  0
    4.5160   -9.3822   15.0841 C   0  0  0  0  0  0  0  0  0  0  0  0
  1  3  4  0
  1 24  4  0
  2  6  4  0
  2 15  4  0
  3  5  4  0
  3  6  4  0
  4 21  4  0
  4 29  4  0
  5 15  4  0
  5 28  1  0
  6 16  4  0
  7 18  4  0
  7 26  4  0
  8 18  1  0
  8 19  4  0
  8 22  4  0
  9 12  4  0
  9 19  4  0
 10 12  4  0
 10 22  4  0
 11 20  4  0
 11 21  4  0
 12 23  1  0
 13 20  4  0
 13 29  4  0
 14 17  4  0
 14 28  4  0
 15 25  2  0
 16 27  4  0
 17 18  4  0
 20 27  1  0
 24 27  4  0
 26 28  4  0
M  END
$$$$

 Created by Python create_sdf_string function

 29 33  0  0  0  0  0  0  0  0999 V2000
    8.8270   -7.0288   18.4251 C   0  0  0  0  0  0  0  0  0  0  0  0
    9.1576   -4.6236   15.8860 O   0  0  0  0  0  0  0  0  0  0  0  0
    9.1509   -5.9108   17.7177 C   0  0  0  0  0  0  0  0  0  0  0  0
    3.6373   -9.5349   16.0582 N   0  0  0  0  0  0  0  0  0  0  0  0
    9.9275   -4.8001   18.0438 N   0  0  0  0  0  0  0  0  0  0  0  0
    8.5908   -5.7425   16.4412 C   0  0  0  0  0  0  0  0  0  0  0  0
   10.5993   -4.8981   21.6068 C   0  0  0  0  0  0  0  0  0  0  0  0
   10.4258   -3.0106   23.0998 C   0  0  0  0  0  0  0  0  0  0  0  0
   10.2148   -3.4364   25.4200 C   0  0  0  0  0  0  0  0  0  0  0  0
    9.7853   -1.1840   24.4927 C   0  0  0  0  0  0  0  0  0  0  0  0
    5.0276   -8.5227   17.5352 C   0  0  0  0  0  0  0  0  0  0  0  0
    9.8187   -2.0895   25.5800 C   0  0  0  0  0  0  0  0  0  0  0  0
    5.6473   -8.7216   15.3158 C   0  0  0  0  0  0  0  0  0  0  0  0
   10.7581   -3.1233   19.4720 N   0  0  0  0  0  0  0  0  0  0  0  0
    9.9571   -4.0573   16.8866 C   0  0  0  0  0  0  0  0  0  0  0  0
    7.6213   -6.5618   16.0087 C   0  0  0  0  0  0  0  0  0  0  0  0
   10.8583   -2.6527   20.7222 C   0  0  0  0  0  0  0  0  0  0  0  0
   10.6412   -3.5089   21.7936 C   0  0  0  0  0  0  0  0  0  0  0  0
   10.4972   -3.8968   24.1589 C   0  0  0  0  0  0  0  0  0  0  0  0
    5.9260   -8.2736   16.5517 C   0  0  0  0  0  0  0  0  0  0  0  0
    3.8816   -9.1166   17.2493 C   0  0  0  0  0  0  0  0  0  0  0  0
   10.1297   -1.6575   23.2324 C   0  0  0  0  0  0  0  0  0  0  0  0
    9.4684   -1.6929   26.7263 F   0  0  0  0  0  0  0  0  0  0  0  0
    7.7963   -7.7906   17.9837 C   0  0  0  0  0  0  0  0  0  0  0  0
   10.5884   -3.0725   16.7902 O   0  0  0  0  0  0  0  0  0  0  0  0
   10.4323   -5.3494   20.3516 C   0  0  0  0  0  0  0  0  0  0  0  0
    7.1156   -7.5454   16.8218 C   0  0  0  0  0  0  0  0  0  0  0  0
   10.3885   -4.4388   19.2773 C   0  0  0  0  0  0  0  0  0  0  0  0
    4.5160   -9.3822   15.0841 C   0  0  0  0  0  0  0  0  0  0  0  0
  1  3  4  0
  1 24  4  0
  2  6  4  0
  2 15  4  0
  3  5  4  0
  3  6  4  0
  4 21  4  0
  4 29  4  0
  5 15  4  0
  5 28  1  0
  6 16  4  0
  7 18  4  0
  7 26  4  0
  8 18  1  0
  8 19  4  0
  8 22  4  0
  9 12  4  0
  9 19  4  0
 10 12  4  0
 10 22  4  0
 11 20  4  0
 11 21  4  0
 12 23  1  0
 13 20  4  0
 13 29  4  0
 14 17  4  0
 14 28  4  0
 15 25  2  0
 16 27  4  0
 17 18  4  0
 20 27  1  0
 24 27  4  0
 26 28  4  0
M  END
$$$$

 Created by Python create_sdf_string function

 29 33  0  0  0  0  0  0  0  0999 V2000
    8.8270   -7.0288   18.4251 C   0  0  0  0  0  0  0  0  0  0  0  0
    9.1576   -4.6236   15.8860 O   0  0  0  0  0  0  0  0  0  0  0  0
    9.1509   -5.9108   17.7177 C   0  0  0  0  0  0  0  0  0  0  0  0
    3.6373   -9.5349   16.0582 N   0  0  0  0  0  0  0  0  0  0  0  0
    9.9275   -4.8001   18.0438 N   0  0  0  0  0  0  0  0  0  0  0  0
    8.5908   -5.7425   16.4412 C   0  0  0  0  0  0  0  0  0  0  0  0
   10.5993   -4.8981   21.6068 C   0  0  0  0  0  0  0  0  0  0  0  0
   10.4258   -3.0106   23.0998 C   0  0  0  0  0  0  0  0  0  0  0  0
   10.2148   -3.4364   25.4200 C   0  0  0  0  0  0  0  0  0  0  0  0
    9.7853   -1.1840   24.4927 C   0  0  0  0  0  0  0  0  0  0  0  0
    5.0276   -8.5227   17.5352 C   0  0  0  0  0  0  0  0  0  0  0  0
    9.8187   -2.0895   25.5800 C   0  0  0  0  0  0  0  0  0  0  0  0
    5.6473   -8.7216   15.3158 C   0  0  0  0  0  0  0  0  0  0  0  0
   10.7581   -3.1233   19.4720 N   0  0  0  0  0  0  0  0  0  0  0  0
    9.9571   -4.0573   16.8866 C   0  0  0  0  0  0  0  0  0  0  0  0
    7.6213   -6.5618   16.0087 C   0  0  0  0  0  0  0  0  0  0  0  0
   10.8583   -2.6527   20.7222 C   0  0  0  0  0  0  0  0  0  0  0  0
   10.6412   -3.5089   21.7936 C   0  0  0  0  0  0  0  0  0  0  0  0
   10.4972   -3.8968   24.1589 C   0  0  0  0  0  0  0  0  0  0  0  0
    5.9260   -8.2736   16.5517 C   0  0  0  0  0  0  0  0  0  0  0  0
    3.8816   -9.1166   17.2493 C   0  0  0  0  0  0  0  0  0  0  0  0
   10.1297   -1.6575   23.2324 C   0  0  0  0  0  0  0  0  0  0  0  0
    9.4684   -1.6929   26.7263 F   0  0  0  0  0  0  0  0  0  0  0  0
    7.7963   -7.7906   17.9837 C   0  0  0  0  0  0  0  0  0  0  0  0
   10.5884   -3.0725   16.7902 O   0  0  0  0  0  0  0  0  0  0  0  0
   10.4323   -5.3494   20.3516 C   0  0  0  0  0  0  0  0  0  0  0  0
    7.1156   -7.5454   16.8218 C   0  0  0  0  0  0  0  0  0  0  0  0
   10.3885   -4.4388   19.2773 C   0  0  0  0  0  0  0  0  0  0  0  0
    4.5160   -9.3822   15.0841 C   0  0  0  0  0  0  0  0  0  0  0  0
  1  3  4  0
  1 24  4  0
  2  6  4  0
  2 15  4  0
  3  5  4  0
  3  6  4  0
  4 21  4  0
  4 29  4  0
  5 15  4  0
  5 28  1  0
  6 16  4  0
  7 18  4  0
  7 26  4  0
  8 18  1  0
  8 19  4  0
  8 22  4  0
  9 12  4  0
  9 19  4  0
 10 12  4  0
 10 22  4  0
 11 20  4  0
 11 21  4  0
 12 23  1  0
 13 20  4  0
 13 29  4  0
 14 17  4  0
 14 28  4  0
 15 25  2  0
 16 27  4  0
 17 18  4  0
 20 27  1  0
 24 27  4  0
 26 28  4  0
M  END
$$$$

 Created by Python create_sdf_string function

 29 33  0  0  0  0  0  0  0  0999 V2000
    8.8270   -7.0288   18.4251 C   0  0  0  0  0  0  0  0  0  0  0  0
    9.1576   -4.6236   15.8860 O   0  0  0  0  0  0  0  0  0  0  0  0
    9.1509   -5.9108   17.7177 C   0  0  0  0  0  0  0  0  0  0  0  0
    3.6373   -9.5349   16.0582 N   0  0  0  0  0  0  0  0  0  0  0  0
    9.9275   -4.8001   18.0438 N   0  0  0  0  0  0  0  0  0  0  0  0
    8.5908   -5.7425   16.4412 C   0  0  0  0  0  0  0  0  0  0  0  0
   10.5993   -4.8981   21.6068 C   0  0  0  0  0  0  0  0  0  0  0  0
   10.4258   -3.0106   23.0998 C   0  0  0  0  0  0  0  0  0  0  0  0
   10.2148   -3.4364   25.4200 C   0  0  0  0  0  0  0  0  0  0  0  0
    9.7853   -1.1840   24.4927 C   0  0  0  0  0  0  0  0  0  0  0  0
    5.0276   -8.5227   17.5352 C   0  0  0  0  0  0  0  0  0  0  0  0
    9.8187   -2.0895   25.5800 C   0  0  0  0  0  0  0  0  0  0  0  0
    5.6473   -8.7216   15.3158 C   0  0  0  0  0  0  0  0  0  0  0  0
   10.7581   -3.1233   19.4720 N   0  0  0  0  0  0  0  0  0  0  0  0
    9.9571   -4.0573   16.8866 C   0  0  0  0  0  0  0  0  0  0  0  0
    7.6213   -6.5618   16.0087 C   0  0  0  0  0  0  0  0  0  0  0  0
   10.8583   -2.6527   20.7222 C   0  0  0  0  0  0  0  0  0  0  0  0
   10.6412   -3.5089   21.7936 C   0  0  0  0  0  0  0  0  0  0  0  0
   10.4972   -3.8968   24.1589 C   0  0  0  0  0  0  0  0  0  0  0  0
    5.9260   -8.2736   16.5517 C   0  0  0  0  0  0  0  0  0  0  0  0
    3.8816   -9.1166   17.2493 C   0  0  0  0  0  0  0  0  0  0  0  0
   10.1297   -1.6575   23.2324 C   0  0  0  0  0  0  0  0  0  0  0  0
    9.4684   -1.6929   26.7263 F   0  0  0  0  0  0  0  0  0  0  0  0
    7.7963   -7.7906   17.9837 C   0  0  0  0  0  0  0  0  0  0  0  0
   10.5884   -3.0725   16.7902 O   0  0  0  0  0  0  0  0  0  0  0  0
   10.4323   -5.3494   20.3516 C   0  0  0  0  0  0  0  0  0  0  0  0
    7.1156   -7.5454   16.8218 C   0  0  0  0  0  0  0  0  0  0  0  0
   10.3885   -4.4388   19.2773 C   0  0  0  0  0  0  0  0  0  0  0  0
    4.5160   -9.3822   15.0841 C   0  0  0  0  0  0  0  0  0  0  0  0
  1  3  4  0
  1 24  4  0
  2  6  4  0
  2 15  4  0
  3  5  4  0
  3  6  4  0
  4 21  4  0
  4 29  4  0
  5 15  4  0
  5 28  1  0
  6 16  4  0
  7 18  4  0
  7 26  4  0
  8 18  1  0
  8 19  4  0
  8 22  4  0
  9 12  4  0
  9 19  4  0
 10 12  4  0
 10 22  4  0
 11 20  4  0
 11 21  4  0
 12 23  1  0
 13 20  4  0
 13 29  4  0
 14 17  4  0
 14 28  4  0
 15 25  2  0
 16 27  4  0
 17 18  4  0
 20 27  1  0
 24 27  4  0
 26 28  4  0
M  END
$$$$

 Created by Python create_sdf_string function

 29 33  0  0  0  0  0  0  0  0999 V2000
    8.8270   -7.0288   18.4251 C   0  0  0  0  0  0  0  0  0  0  0  0
    9.1576   -4.6236   15.8860 O   0  0  0  0  0  0  0  0  0  0  0  0
    9.1509   -5.9108   17.7177 C   0  0  0  0  0  0  0  0  0  0  0  0
    3.6373   -9.5349   16.0582 N   0  0  0  0  0  0  0  0  0  0  0  0
    9.9275   -4.8001   18.0438 N   0  0  0  0  0  0  0  0  0  0  0  0
    8.5908   -5.7425   16.4412 C   0  0  0  0  0  0  0  0  0  0  0  0
   10.5993   -4.8981   21.6068 C   0  0  0  0  0  0  0  0  0  0  0  0
   10.4258   -3.0106   23.0998 C   0  0  0  0  0  0  0  0  0  0  0  0
   10.2148   -3.4364   25.4200 C   0  0  0  0  0  0  0  0  0  0  0  0
    9.7853   -1.1840   24.4927 C   0  0  0  0  0  0  0  0  0  0  0  0
    5.0276   -8.5227   17.5352 C   0  0  0  0  0  0  0  0  0  0  0  0
    9.8187   -2.0895   25.5800 C   0  0  0  0  0  0  0  0  0  0  0  0
    5.6473   -8.7216   15.3158 C   0  0  0  0  0  0  0  0  0  0  0  0
   10.7581   -3.1233   19.4720 N   0  0  0  0  0  0  0  0  0  0  0  0
    9.9571   -4.0573   16.8866 C   0  0  0  0  0  0  0  0  0  0  0  0
    7.6213   -6.5618   16.0087 C   0  0  0  0  0  0  0  0  0  0  0  0
   10.8583   -2.6527   20.7222 C   0  0  0  0  0  0  0  0  0  0  0  0
   10.6412   -3.5089   21.7936 C   0  0  0  0  0  0  0  0  0  0  0  0
   10.4972   -3.8968   24.1589 C   0  0  0  0  0  0  0  0  0  0  0  0
    5.9260   -8.2736   16.5517 C   0  0  0  0  0  0  0  0  0  0  0  0
    3.8816   -9.1166   17.2493 C   0  0  0  0  0  0  0  0  0  0  0  0
   10.1297   -1.6575   23.2324 C   0  0  0  0  0  0  0  0  0  0  0  0
    9.4684   -1.6929   26.7263 F   0  0  0  0  0  0  0  0  0  0  0  0
    7.7963   -7.7906   17.9837 C   0  0  0  0  0  0  0  0  0  0  0  0
   10.5884   -3.0725   16.7902 O   0  0  0  0  0  0  0  0  0  0  0  0
   10.4323   -5.3494   20.3516 C   0  0  0  0  0  0  0  0  0  0  0  0
    7.1156   -7.5454   16.8218 C   0  0  0  0  0  0  0  0  0  0  0  0
   10.3885   -4.4388   19.2773 C   0  0  0  0  0  0  0  0  0  0  0  0
    4.5160   -9.3822   15.0841 C   0  0  0  0  0  0  0  0  0  0  0  0
  1  3  4  0
  1 24  4  0
  2  6  4  0
  2 15  4  0
  3  5  4  0
  3  6  4  0
  4 21  4  0
  4 29  4  0
  5 15  4  0
  5 28  1  0
  6 16  4  0
  7 18  4  0
  7 26  4  0
  8 18  1  0
  8 19  4  0
  8 22  4  0
  9 12  4  0
  9 19  4  0
 10 12  4  0
 10 22  4  0
 11 20  4  0
 11 21  4  0
 12 23  1  0
 13 20  4  0
 13 29  4  0
 14 17  4  0
 14 28  4  0
 15 25  2  0
 16 27  4  0
 17 18  4  0
 20 27  1  0
 24 27  4  0
 26 28  4  0
M  END
$$$$

 Created by Python create_sdf_string function

 29 33  0  0  0  0  0  0  0  0999 V2000
    8.8270   -7.0288   18.4251 C   0  0  0  0  0  0  0  0  0  0  0  0
    9.1576   -4.6236   15.8860 O   0  0  0  0  0  0  0  0  0  0  0  0
    9.1509   -5.9108   17.7177 C   0  0  0  0  0  0  0  0  0  0  0  0
    3.6373   -9.5349   16.0582 N   0  0  0  0  0  0  0  0  0  0  0  0
    9.9275   -4.8001   18.0438 N   0  0  0  0  0  0  0  0  0  0  0  0
    8.5908   -5.7425   16.4412 C   0  0  0  0  0  0  0  0  0  0  0  0
   10.5993   -4.8981   21.6068 C   0  0  0  0  0  0  0  0  0  0  0  0
   10.4258   -3.0106   23.0998 C   0  0  0  0  0  0  0  0  0  0  0  0
   10.2148   -3.4364   25.4200 C   0  0  0  0  0  0  0  0  0  0  0  0
    9.7853   -1.1840   24.4927 C   0  0  0  0  0  0  0  0  0  0  0  0
    5.0276   -8.5227   17.5352 C   0  0  0  0  0  0  0  0  0  0  0  0
    9.8187   -2.0895   25.5800 C   0  0  0  0  0  0  0  0  0  0  0  0
    5.6473   -8.7216   15.3158 C   0  0  0  0  0  0  0  0  0  0  0  0
   10.7581   -3.1233   19.4720 N   0  0  0  0  0  0  0  0  0  0  0  0
    9.9571   -4.0573   16.8866 C   0  0  0  0  0  0  0  0  0  0  0  0
    7.6213   -6.5618   16.0087 C   0  0  0  0  0  0  0  0  0  0  0  0
   10.8583   -2.6527   20.7222 C   0  0  0  0  0  0  0  0  0  0  0  0
   10.6412   -3.5089   21.7936 C   0  0  0  0  0  0  0  0  0  0  0  0
   10.4972   -3.8968   24.1589 C   0  0  0  0  0  0  0  0  0  0  0  0
    5.9260   -8.2736   16.5517 C   0  0  0  0  0  0  0  0  0  0  0  0
    3.8816   -9.1166   17.2493 C   0  0  0  0  0  0  0  0  0  0  0  0
   10.1297   -1.6575   23.2324 C   0  0  0  0  0  0  0  0  0  0  0  0
    9.4684   -1.6929   26.7263 F   0  0  0  0  0  0  0  0  0  0  0  0
    7.7963   -7.7906   17.9837 C   0  0  0  0  0  0  0  0  0  0  0  0
   10.5884   -3.0725   16.7902 O   0  0  0  0  0  0  0  0  0  0  0  0
   10.4323   -5.3494   20.3516 C   0  0  0  0  0  0  0  0  0  0  0  0
    7.1156   -7.5454   16.8218 C   0  0  0  0  0  0  0  0  0  0  0  0
   10.3885   -4.4388   19.2773 C   0  0  0  0  0  0  0  0  0  0  0  0
    4.5160   -9.3822   15.0841 C   0  0  0  0  0  0  0  0  0  0  0  0
  1  3  4  0
  1 24  4  0
  2  6  4  0
  2 15  4  0
  3  5  4  0
  3  6  4  0
  4 21  4  0
  4 29  4  0
  5 15  4  0
  5 28  1  0
  6 16  4  0
  7 18  4  0
  7 26  4  0
  8 18  1  0
  8 19  4  0
  8 22  4  0
  9 12  4  0
  9 19  4  0
 10 12  4  0
 10 22  4  0
 11 20  4  0
 11 21  4  0
 12 23  1  0
 13 20  4  0
 13 29  4  0
 14 17  4  0
 14 28  4  0
 15 25  2  0
 16 27  4  0
 17 18  4  0
 20 27  1  0
 24 27  4  0
 26 28  4  0
M  END
$$$$

 Created by Python create_sdf_string function

 29 33  0  0  0  0  0  0  0  0999 V2000
    8.8270   -7.0288   18.4251 C   0  0  0  0  0  0  0  0  0  0  0  0
    9.1576   -4.6236   15.8860 O   0  0  0  0  0  0  0  0  0  0  0  0
    9.1509   -5.9108   17.7177 C   0  0  0  0  0  0  0  0  0  0  0  0
    3.6373   -9.5349   16.0582 N   0  0  0  0  0  0  0  0  0  0  0  0
    9.9275   -4.8001   18.0438 N   0  0  0  0  0  0  0  0  0  0  0  0
    8.5908   -5.7425   16.4412 C   0  0  0  0  0  0  0  0  0  0  0  0
   10.5993   -4.8981   21.6068 C   0  0  0  0  0  0  0  0  0  0  0  0
   10.4258   -3.0106   23.0998 C   0  0  0  0  0  0  0  0  0  0  0  0
   10.2148   -3.4364   25.4200 C   0  0  0  0  0  0  0  0  0  0  0  0
    9.7853   -1.1840   24.4927 C   0  0  0  0  0  0  0  0  0  0  0  0
    5.0276   -8.5227   17.5352 C   0  0  0  0  0  0  0  0  0  0  0  0
    9.8187   -2.0895   25.5800 C   0  0  0  0  0  0  0  0  0  0  0  0
    5.6473   -8.7216   15.3158 C   0  0  0  0  0  0  0  0  0  0  0  0
   10.7581   -3.1233   19.4720 N   0  0  0  0  0  0  0  0  0  0  0  0
    9.9571   -4.0573   16.8866 C   0  0  0  0  0  0  0  0  0  0  0  0
    7.6213   -6.5618   16.0087 C   0  0  0  0  0  0  0  0  0  0  0  0
   10.8583   -2.6527   20.7222 C   0  0  0  0  0  0  0  0  0  0  0  0
   10.6412   -3.5089   21.7936 C   0  0  0  0  0  0  0  0  0  0  0  0
   10.4972   -3.8968   24.1589 C   0  0  0  0  0  0  0  0  0  0  0  0
    5.9260   -8.2736   16.5517 C   0  0  0  0  0  0  0  0  0  0  0  0
    3.8816   -9.1166   17.2493 C   0  0  0  0  0  0  0  0  0  0  0  0
   10.1297   -1.6575   23.2324 C   0  0  0  0  0  0  0  0  0  0  0  0
    9.4684   -1.6929   26.7263 F   0  0  0  0  0  0  0  0  0  0  0  0
    7.7963   -7.7906   17.9837 C   0  0  0  0  0  0  0  0  0  0  0  0
   10.5884   -3.0725   16.7902 O   0  0  0  0  0  0  0  0  0  0  0  0
   10.4323   -5.3494   20.3516 C   0  0  0  0  0  0  0  0  0  0  0  0
    7.1156   -7.5454   16.8218 C   0  0  0  0  0  0  0  0  0  0  0  0
   10.3885   -4.4388   19.2773 C   0  0  0  0  0  0  0  0  0  0  0  0
    4.5160   -9.3822   15.0841 C   0  0  0  0  0  0  0  0  0  0  0  0
  1  3  4  0
  1 24  4  0
  2  6  4  0
  2 15  4  0
  3  5  4  0
  3  6  4  0
  4 21  4  0
  4 29  4  0
  5 15  4  0
  5 28  1  0
  6 16  4  0
  7 18  4  0
  7 26  4  0
  8 18  1  0
  8 19  4  0
  8 22  4  0
  9 12  4  0
  9 19  4  0
 10 12  4  0
 10 22  4  0
 11 20  4  0
 11 21  4  0
 12 23  1  0
 13 20  4  0
 13 29  4  0
 14 17  4  0
 14 28  4  0
 15 25  2  0
 16 27  4  0
 17 18  4  0
 20 27  1  0
 24 27  4  0
 26 28  4  0
M  END
$$$$

 Created by Python create_sdf_string function

 29 33  0  0  0  0  0  0  0  0999 V2000
    8.8270   -7.0288   18.4251 C   0  0  0  0  0  0  0  0  0  0  0  0
    9.1576   -4.6236   15.8860 O   0  0  0  0  0  0  0  0  0  0  0  0
    9.1509   -5.9108   17.7177 C   0  0  0  0  0  0  0  0  0  0  0  0
    3.6373   -9.5349   16.0582 N   0  0  0  0  0  0  0  0  0  0  0  0
    9.9275   -4.8001   18.0438 N   0  0  0  0  0  0  0  0  0  0  0  0
    8.5908   -5.7425   16.4412 C   0  0  0  0  0  0  0  0  0  0  0  0
   10.5993   -4.8981   21.6068 C   0  0  0  0  0  0  0  0  0  0  0  0
   10.4258   -3.0106   23.0998 C   0  0  0  0  0  0  0  0  0  0  0  0
   10.2148   -3.4364   25.4200 C   0  0  0  0  0  0  0  0  0  0  0  0
    9.7853   -1.1840   24.4927 C   0  0  0  0  0  0  0  0  0  0  0  0
    5.0276   -8.5227   17.5352 C   0  0  0  0  0  0  0  0  0  0  0  0
    9.8187   -2.0895   25.5800 C   0  0  0  0  0  0  0  0  0  0  0  0
    5.6473   -8.7216   15.3158 C   0  0  0  0  0  0  0  0  0  0  0  0
   10.7581   -3.1233   19.4720 N   0  0  0  0  0  0  0  0  0  0  0  0
    9.9571   -4.0573   16.8866 C   0  0  0  0  0  0  0  0  0  0  0  0
    7.6213   -6.5618   16.0087 C   0  0  0  0  0  0  0  0  0  0  0  0
   10.8583   -2.6527   20.7222 C   0  0  0  0  0  0  0  0  0  0  0  0
   10.6412   -3.5089   21.7936 C   0  0  0  0  0  0  0  0  0  0  0  0
   10.4972   -3.8968   24.1589 C   0  0  0  0  0  0  0  0  0  0  0  0
    5.9260   -8.2736   16.5517 C   0  0  0  0  0  0  0  0  0  0  0  0
    3.8816   -9.1166   17.2493 C   0  0  0  0  0  0  0  0  0  0  0  0
   10.1297   -1.6575   23.2324 C   0  0  0  0  0  0  0  0  0  0  0  0
    9.4684   -1.6929   26.7263 F   0  0  0  0  0  0  0  0  0  0  0  0
    7.7963   -7.7906   17.9837 C   0  0  0  0  0  0  0  0  0  0  0  0
   10.5884   -3.0725   16.7902 O   0  0  0  0  0  0  0  0  0  0  0  0
   10.4323   -5.3494   20.3516 C   0  0  0  0  0  0  0  0  0  0  0  0
    7.1156   -7.5454   16.8218 C   0  0  0  0  0  0  0  0  0  0  0  0
   10.3885   -4.4388   19.2773 C   0  0  0  0  0  0  0  0  0  0  0  0
    4.5160   -9.3822   15.0841 C   0  0  0  0  0  0  0  0  0  0  0  0
  1  3  4  0
  1 24  4  0
  2  6  4  0
  2 15  4  0
  3  5  4  0
  3  6  4  0
  4 21  4  0
  4 29  4  0
  5 15  4  0
  5 28  1  0
  6 16  4  0
  7 18  4  0
  7 26  4  0
  8 18  1  0
  8 19  4  0
  8 22  4  0
  9 12  4  0
  9 19  4  0
 10 12  4  0
 10 22  4  0
 11 20  4  0
 11 21  4  0
 12 23  1  0
 13 20  4  0
 13 29  4  0
 14 17  4  0
 14 28  4  0
 15 25  2  0
 16 27  4  0
 17 18  4  0
 20 27  1  0
 24 27  4  0
 26 28  4  0
M  END
$$$$

 Created by Python create_sdf_string function

 29 33  0  0  0  0  0  0  0  0999 V2000
    8.8270   -7.0288   18.4251 C   0  0  0  0  0  0  0  0  0  0  0  0
    9.1576   -4.6236   15.8860 O   0  0  0  0  0  0  0  0  0  0  0  0
    9.1509   -5.9108   17.7177 C   0  0  0  0  0  0  0  0  0  0  0  0
    3.6373   -9.5349   16.0582 N   0  0  0  0  0  0  0  0  0  0  0  0
    9.9275   -4.8001   18.0438 N   0  0  0  0  0  0  0  0  0  0  0  0
    8.5908   -5.7425   16.4412 C   0  0  0  0  0  0  0  0  0  0  0  0
   10.5993   -4.8981   21.6068 C   0  0  0  0  0  0  0  0  0  0  0  0
   10.4258   -3.0106   23.0998 C   0  0  0  0  0  0  0  0  0  0  0  0
   10.2148   -3.4364   25.4200 C   0  0  0  0  0  0  0  0  0  0  0  0
    9.7853   -1.1840   24.4927 C   0  0  0  0  0  0  0  0  0  0  0  0
    5.0276   -8.5227   17.5352 C   0  0  0  0  0  0  0  0  0  0  0  0
    9.8187   -2.0895   25.5800 C   0  0  0  0  0  0  0  0  0  0  0  0
    5.6473   -8.7216   15.3158 C   0  0  0  0  0  0  0  0  0  0  0  0
   10.7581   -3.1233   19.4720 N   0  0  0  0  0  0  0  0  0  0  0  0
    9.9571   -4.0573   16.8866 C   0  0  0  0  0  0  0  0  0  0  0  0
    7.6213   -6.5618   16.0087 C   0  0  0  0  0  0  0  0  0  0  0  0
   10.8583   -2.6527   20.7222 C   0  0  0  0  0  0  0  0  0  0  0  0
   10.6412   -3.5089   21.7936 C   0  0  0  0  0  0  0  0  0  0  0  0
   10.4972   -3.8968   24.1589 C   0  0  0  0  0  0  0  0  0  0  0  0
    5.9260   -8.2736   16.5517 C   0  0  0  0  0  0  0  0  0  0  0  0
    3.8816   -9.1166   17.2493 C   0  0  0  0  0  0  0  0  0  0  0  0
   10.1297   -1.6575   23.2324 C   0  0  0  0  0  0  0  0  0  0  0  0
    9.4684   -1.6929   26.7263 F   0  0  0  0  0  0  0  0  0  0  0  0
    7.7963   -7.7906   17.9837 C   0  0  0  0  0  0  0  0  0  0  0  0
   10.5884   -3.0725   16.7902 O   0  0  0  0  0  0  0  0  0  0  0  0
   10.4323   -5.3494   20.3516 C   0  0  0  0  0  0  0  0  0  0  0  0
    7.1156   -7.5454   16.8218 C   0  0  0  0  0  0  0  0  0  0  0  0
   10.3885   -4.4388   19.2773 C   0  0  0  0  0  0  0  0  0  0  0  0
    4.5160   -9.3822   15.0841 C   0  0  0  0  0  0  0  0  0  0  0  0
  1  3  4  0
  1 24  4  0
  2  6  4  0
  2 15  4  0
  3  5  4  0
  3  6  4  0
  4 21  4  0
  4 29  4  0
  5 15  4  0
  5 28  1  0
  6 16  4  0
  7 18  4  0
  7 26  4  0
  8 18  1  0
  8 19  4  0
  8 22  4  0
  9 12  4  0
  9 19  4  0
 10 12  4  0
 10 22  4  0
 11 20  4  0
 11 21  4  0
 12 23  1  0
 13 20  4  0
 13 29  4  0
 14 17  4  0
 14 28  4  0
 15 25  2  0
 16 27  4  0
 17 18  4  0
 20 27  1  0
 24 27  4  0
 26 28  4  0
M  END
$$$$

 Created by Python create_sdf_string function

 29 33  0  0  0  0  0  0  0  0999 V2000
    8.8270   -7.0288   18.4251 C   0  0  0  0  0  0  0  0  0  0  0  0
    9.1576   -4.6236   15.8860 O   0  0  0  0  0  0  0  0  0  0  0  0
    9.1509   -5.9108   17.7177 C   0  0  0  0  0  0  0  0  0  0  0  0
    3.6373   -9.5349   16.0582 N   0  0  0  0  0  0  0  0  0  0  0  0
    9.9275   -4.8001   18.0438 N   0  0  0  0  0  0  0  0  0  0  0  0
    8.5908   -5.7425   16.4412 C   0  0  0  0  0  0  0  0  0  0  0  0
   10.5993   -4.8981   21.6068 C   0  0  0  0  0  0  0  0  0  0  0  0
   10.4258   -3.0106   23.0998 C   0  0  0  0  0  0  0  0  0  0  0  0
   10.2148   -3.4364   25.4200 C   0  0  0  0  0  0  0  0  0  0  0  0
    9.7853   -1.1840   24.4927 C   0  0  0  0  0  0  0  0  0  0  0  0
    5.0276   -8.5227   17.5352 C   0  0  0  0  0  0  0  0  0  0  0  0
    9.8187   -2.0895   25.5800 C   0  0  0  0  0  0  0  0  0  0  0  0
    5.6473   -8.7216   15.3158 C   0  0  0  0  0  0  0  0  0  0  0  0
   10.7581   -3.1233   19.4720 N   0  0  0  0  0  0  0  0  0  0  0  0
    9.9571   -4.0573   16.8866 C   0  0  0  0  0  0  0  0  0  0  0  0
    7.6213   -6.5618   16.0087 C   0  0  0  0  0  0  0  0  0  0  0  0
   10.8583   -2.6527   20.7222 C   0  0  0  0  0  0  0  0  0  0  0  0
   10.6412   -3.5089   21.7936 C   0  0  0  0  0  0  0  0  0  0  0  0
   10.4972   -3.8968   24.1589 C   0  0  0  0  0  0  0  0  0  0  0  0
    5.9260   -8.2736   16.5517 C   0  0  0  0  0  0  0  0  0  0  0  0
    3.8816   -9.1166   17.2493 C   0  0  0  0  0  0  0  0  0  0  0  0
   10.1297   -1.6575   23.2324 C   0  0  0  0  0  0  0  0  0  0  0  0
    9.4684   -1.6929   26.7263 F   0  0  0  0  0  0  0  0  0  0  0  0
    7.7963   -7.7906   17.9837 C   0  0  0  0  0  0  0  0  0  0  0  0
   10.5884   -3.0725   16.7902 O   0  0  0  0  0  0  0  0  0  0  0  0
   10.4323   -5.3494   20.3516 C   0  0  0  0  0  0  0  0  0  0  0  0
    7.1156   -7.5454   16.8218 C   0  0  0  0  0  0  0  0  0  0  0  0
   10.3885   -4.4388   19.2773 C   0  0  0  0  0  0  0  0  0  0  0  0
    4.5160   -9.3822   15.0841 C   0  0  0  0  0  0  0  0  0  0  0  0
  1  3  4  0
  1 24  4  0
  2  6  4  0
  2 15  4  0
  3  5  4  0
  3  6  4  0
  4 21  4  0
  4 29  4  0
  5 15  4  0
  5 28  1  0
  6 16  4  0
  7 18  4  0
  7 26  4  0
  8 18  1  0
  8 19  4  0
  8 22  4  0
  9 12  4  0
  9 19  4  0
 10 12  4  0
 10 22  4  0
 11 20  4  0
 11 21  4  0
 12 23  1  0
 13 20  4  0
 13 29  4  0
 14 17  4  0
 14 28  4  0
 15 25  2  0
 16 27  4  0
 17 18  4  0
 20 27  1  0
 24 27  4  0
 26 28  4  0
M  END
$$$$

 Created by Python create_sdf_string function

 29 33  0  0  0  0  0  0  0  0999 V2000
    8.8270   -7.0288   18.4251 C   0  0  0  0  0  0  0  0  0  0  0  0
    9.1576   -4.6236   15.8860 O   0  0  0  0  0  0  0  0  0  0  0  0
    9.1509   -5.9108   17.7177 C   0  0  0  0  0  0  0  0  0  0  0  0
    3.6373   -9.5349   16.0582 N   0  0  0  0  0  0  0  0  0  0  0  0
    9.9275   -4.8001   18.0438 N   0  0  0  0  0  0  0  0  0  0  0  0
    8.5908   -5.7425   16.4412 C   0  0  0  0  0  0  0  0  0  0  0  0
   10.5993   -4.8981   21.6068 C   0  0  0  0  0  0  0  0  0  0  0  0
   10.4258   -3.0106   23.0998 C   0  0  0  0  0  0  0  0  0  0  0  0
   10.2148   -3.4364   25.4200 C   0  0  0  0  0  0  0  0  0  0  0  0
    9.7853   -1.1840   24.4927 C   0  0  0  0  0  0  0  0  0  0  0  0
    5.0276   -8.5227   17.5352 C   0  0  0  0  0  0  0  0  0  0  0  0
    9.8187   -2.0895   25.5800 C   0  0  0  0  0  0  0  0  0  0  0  0
    5.6473   -8.7216   15.3158 C   0  0  0  0  0  0  0  0  0  0  0  0
   10.7581   -3.1233   19.4720 N   0  0  0  0  0  0  0  0  0  0  0  0
    9.9571   -4.0573   16.8866 C   0  0  0  0  0  0  0  0  0  0  0  0
    7.6213   -6.5618   16.0087 C   0  0  0  0  0  0  0  0  0  0  0  0
   10.8583   -2.6527   20.7222 C   0  0  0  0  0  0  0  0  0  0  0  0
   10.6412   -3.5089   21.7936 C   0  0  0  0  0  0  0  0  0  0  0  0
   10.4972   -3.8968   24.1589 C   0  0  0  0  0  0  0  0  0  0  0  0
    5.9260   -8.2736   16.5517 C   0  0  0  0  0  0  0  0  0  0  0  0
    3.8816   -9.1166   17.2493 C   0  0  0  0  0  0  0  0  0  0  0  0
   10.1297   -1.6575   23.2324 C   0  0  0  0  0  0  0  0  0  0  0  0
    9.4684   -1.6929   26.7263 F   0  0  0  0  0  0  0  0  0  0  0  0
    7.7963   -7.7906   17.9837 C   0  0  0  0  0  0  0  0  0  0  0  0
   10.5884   -3.0725   16.7902 O   0  0  0  0  0  0  0  0  0  0  0  0
   10.4323   -5.3494   20.3516 C   0  0  0  0  0  0  0  0  0  0  0  0
    7.1156   -7.5454   16.8218 C   0  0  0  0  0  0  0  0  0  0  0  0
   10.3885   -4.4388   19.2773 C   0  0  0  0  0  0  0  0  0  0  0  0
    4.5160   -9.3822   15.0841 C   0  0  0  0  0  0  0  0  0  0  0  0
  1  3  4  0
  1 24  4  0
  2  6  4  0
  2 15  4  0
  3  5  4  0
  3  6  4  0
  4 21  4  0
  4 29  4  0
  5 15  4  0
  5 28  1  0
  6 16  4  0
  7 18  4  0
  7 26  4  0
  8 18  1  0
  8 19  4  0
  8 22  4  0
  9 12  4  0
  9 19  4  0
 10 12  4  0
 10 22  4  0
 11 20  4  0
 11 21  4  0
 12 23  1  0
 13 20  4  0
 13 29  4  0
 14 17  4  0
 14 28  4  0
 15 25  2  0
 16 27  4  0
 17 18  4  0
 20 27  1  0
 24 27  4  0
 26 28  4  0
M  END
$$$$

 Created by Python create_sdf_string function

 29 33  0  0  0  0  0  0  0  0999 V2000
    8.8270   -7.0288   18.4251 C   0  0  0  0  0  0  0  0  0  0  0  0
    9.1576   -4.6236   15.8860 O   0  0  0  0  0  0  0  0  0  0  0  0
    9.1509   -5.9108   17.7177 C   0  0  0  0  0  0  0  0  0  0  0  0
    3.6373   -9.5349   16.0582 N   0  0  0  0  0  0  0  0  0  0  0  0
    9.9275   -4.8001   18.0438 N   0  0  0  0  0  0  0  0  0  0  0  0
    8.5908   -5.7425   16.4412 C   0  0  0  0  0  0  0  0  0  0  0  0
   10.5993   -4.8981   21.6068 C   0  0  0  0  0  0  0  0  0  0  0  0
   10.4258   -3.0106   23.0998 C   0  0  0  0  0  0  0  0  0  0  0  0
   10.2148   -3.4364   25.4200 C   0  0  0  0  0  0  0  0  0  0  0  0
    9.7853   -1.1840   24.4927 C   0  0  0  0  0  0  0  0  0  0  0  0
    5.0276   -8.5227   17.5352 C   0  0  0  0  0  0  0  0  0  0  0  0
    9.8187   -2.0895   25.5800 C   0  0  0  0  0  0  0  0  0  0  0  0
    5.6473   -8.7216   15.3158 C   0  0  0  0  0  0  0  0  0  0  0  0
   10.7581   -3.1233   19.4720 N   0  0  0  0  0  0  0  0  0  0  0  0
    9.9571   -4.0573   16.8866 C   0  0  0  0  0  0  0  0  0  0  0  0
    7.6213   -6.5618   16.0087 C   0  0  0  0  0  0  0  0  0  0  0  0
   10.8583   -2.6527   20.7222 C   0  0  0  0  0  0  0  0  0  0  0  0
   10.6412   -3.5089   21.7936 C   0  0  0  0  0  0  0  0  0  0  0  0
   10.4972   -3.8968   24.1589 C   0  0  0  0  0  0  0  0  0  0  0  0
    5.9260   -8.2736   16.5517 C   0  0  0  0  0  0  0  0  0  0  0  0
    3.8816   -9.1166   17.2493 C   0  0  0  0  0  0  0  0  0  0  0  0
   10.1297   -1.6575   23.2324 C   0  0  0  0  0  0  0  0  0  0  0  0
    9.4684   -1.6929   26.7263 F   0  0  0  0  0  0  0  0  0  0  0  0
    7.7963   -7.7906   17.9837 C   0  0  0  0  0  0  0  0  0  0  0  0
   10.5884   -3.0725   16.7902 O   0  0  0  0  0  0  0  0  0  0  0  0
   10.4323   -5.3494   20.3516 C   0  0  0  0  0  0  0  0  0  0  0  0
    7.1156   -7.5454   16.8218 C   0  0  0  0  0  0  0  0  0  0  0  0
   10.3885   -4.4388   19.2773 C   0  0  0  0  0  0  0  0  0  0  0  0
    4.5160   -9.3822   15.0841 C   0  0  0  0  0  0  0  0  0  0  0  0
  1  3  4  0
  1 24  4  0
  2  6  4  0
  2 15  4  0
  3  5  4  0
  3  6  4  0
  4 21  4  0
  4 29  4  0
  5 15  4  0
  5 28  1  0
  6 16  4  0
  7 18  4  0
  7 26  4  0
  8 18  1  0
  8 19  4  0
  8 22  4  0
  9 12  4  0
  9 19  4  0
 10 12  4  0
 10 22  4  0
 11 20  4  0
 11 21  4  0
 12 23  1  0
 13 20  4  0
 13 29  4  0
 14 17  4  0
 14 28  4  0
 15 25  2  0
 16 27  4  0
 17 18  4  0
 20 27  1  0
 24 27  4  0
 26 28  4  0
M  END
$$$$

 Created by Python create_sdf_string function

 29 33  0  0  0  0  0  0  0  0999 V2000
    8.8270   -7.0288   18.4251 C   0  0  0  0  0  0  0  0  0  0  0  0
    9.1576   -4.6236   15.8860 O   0  0  0  0  0  0  0  0  0  0  0  0
    9.1509   -5.9108   17.7177 C   0  0  0  0  0  0  0  0  0  0  0  0
    3.6373   -9.5349   16.0582 N   0  0  0  0  0  0  0  0  0  0  0  0
    9.9275   -4.8001   18.0438 N   0  0  0  0  0  0  0  0  0  0  0  0
    8.5908   -5.7425   16.4412 C   0  0  0  0  0  0  0  0  0  0  0  0
   10.5993   -4.8981   21.6068 C   0  0  0  0  0  0  0  0  0  0  0  0
   10.4258   -3.0106   23.0998 C   0  0  0  0  0  0  0  0  0  0  0  0
   10.2148   -3.4364   25.4200 C   0  0  0  0  0  0  0  0  0  0  0  0
    9.7853   -1.1840   24.4927 C   0  0  0  0  0  0  0  0  0  0  0  0
    5.0276   -8.5227   17.5352 C   0  0  0  0  0  0  0  0  0  0  0  0
    9.8187   -2.0895   25.5800 C   0  0  0  0  0  0  0  0  0  0  0  0
    5.6473   -8.7216   15.3158 C   0  0  0  0  0  0  0  0  0  0  0  0
   10.7581   -3.1233   19.4720 N   0  0  0  0  0  0  0  0  0  0  0  0
    9.9571   -4.0573   16.8866 C   0  0  0  0  0  0  0  0  0  0  0  0
    7.6213   -6.5618   16.0087 C   0  0  0  0  0  0  0  0  0  0  0  0
   10.8583   -2.6527   20.7222 C   0  0  0  0  0  0  0  0  0  0  0  0
   10.6412   -3.5089   21.7936 C   0  0  0  0  0  0  0  0  0  0  0  0
   10.4972   -3.8968   24.1589 C   0  0  0  0  0  0  0  0  0  0  0  0
    5.9260   -8.2736   16.5517 C   0  0  0  0  0  0  0  0  0  0  0  0
    3.8816   -9.1166   17.2493 C   0  0  0  0  0  0  0  0  0  0  0  0
   10.1297   -1.6575   23.2324 C   0  0  0  0  0  0  0  0  0  0  0  0
    9.4684   -1.6929   26.7263 F   0  0  0  0  0  0  0  0  0  0  0  0
    7.7963   -7.7906   17.9837 C   0  0  0  0  0  0  0  0  0  0  0  0
   10.5884   -3.0725   16.7902 O   0  0  0  0  0  0  0  0  0  0  0  0
   10.4323   -5.3494   20.3516 C   0  0  0  0  0  0  0  0  0  0  0  0
    7.1156   -7.5454   16.8218 C   0  0  0  0  0  0  0  0  0  0  0  0
   10.3885   -4.4388   19.2773 C   0  0  0  0  0  0  0  0  0  0  0  0
    4.5160   -9.3822   15.0841 C   0  0  0  0  0  0  0  0  0  0  0  0
  1  3  4  0
  1 24  4  0
  2  6  4  0
  2 15  4  0
  3  5  4  0
  3  6  4  0
  4 21  4  0
  4 29  4  0
  5 15  4  0
  5 28  1  0
  6 16  4  0
  7 18  4  0
  7 26  4  0
  8 18  1  0
  8 19  4  0
  8 22  4  0
  9 12  4  0
  9 19  4  0
 10 12  4  0
 10 22  4  0
 11 20  4  0
 11 21  4  0
 12 23  1  0
 13 20  4  0
 13 29  4  0
 14 17  4  0
 14 28  4  0
 15 25  2  0
 16 27  4  0
 17 18  4  0
 20 27  1  0
 24 27  4  0
 26 28  4  0
M  END
$$$$

 Created by Python create_sdf_string function

 29 33  0  0  0  0  0  0  0  0999 V2000
    8.8270   -7.0288   18.4251 C   0  0  0  0  0  0  0  0  0  0  0  0
    9.1576   -4.6236   15.8860 O   0  0  0  0  0  0  0  0  0  0  0  0
    9.1509   -5.9108   17.7177 C   0  0  0  0  0  0  0  0  0  0  0  0
    3.6373   -9.5349   16.0582 N   0  0  0  0  0  0  0  0  0  0  0  0
    9.9275   -4.8001   18.0438 N   0  0  0  0  0  0  0  0  0  0  0  0
    8.5908   -5.7425   16.4412 C   0  0  0  0  0  0  0  0  0  0  0  0
   10.5993   -4.8981   21.6068 C   0  0  0  0  0  0  0  0  0  0  0  0
   10.4258   -3.0106   23.0998 C   0  0  0  0  0  0  0  0  0  0  0  0
   10.2148   -3.4364   25.4200 C   0  0  0  0  0  0  0  0  0  0  0  0
    9.7853   -1.1840   24.4927 C   0  0  0  0  0  0  0  0  0  0  0  0
    5.0276   -8.5227   17.5352 C   0  0  0  0  0  0  0  0  0  0  0  0
    9.8187   -2.0895   25.5800 C   0  0  0  0  0  0  0  0  0  0  0  0
    5.6473   -8.7216   15.3158 C   0  0  0  0  0  0  0  0  0  0  0  0
   10.7581   -3.1233   19.4720 N   0  0  0  0  0  0  0  0  0  0  0  0
    9.9571   -4.0573   16.8866 C   0  0  0  0  0  0  0  0  0  0  0  0
    7.6213   -6.5618   16.0087 C   0  0  0  0  0  0  0  0  0  0  0  0
   10.8583   -2.6527   20.7222 C   0  0  0  0  0  0  0  0  0  0  0  0
   10.6412   -3.5089   21.7936 C   0  0  0  0  0  0  0  0  0  0  0  0
   10.4972   -3.8968   24.1589 C   0  0  0  0  0  0  0  0  0  0  0  0
    5.9260   -8.2736   16.5517 C   0  0  0  0  0  0  0  0  0  0  0  0
    3.8816   -9.1166   17.2493 C   0  0  0  0  0  0  0  0  0  0  0  0
   10.1297   -1.6575   23.2324 C   0  0  0  0  0  0  0  0  0  0  0  0
    9.4684   -1.6929   26.7263 F   0  0  0  0  0  0  0  0  0  0  0  0
    7.7963   -7.7906   17.9837 C   0  0  0  0  0  0  0  0  0  0  0  0
   10.5884   -3.0725   16.7902 O   0  0  0  0  0  0  0  0  0  0  0  0
   10.4323   -5.3494   20.3516 C   0  0  0  0  0  0  0  0  0  0  0  0
    7.1156   -7.5454   16.8218 C   0  0  0  0  0  0  0  0  0  0  0  0
   10.3885   -4.4388   19.2773 C   0  0  0  0  0  0  0  0  0  0  0  0
    4.5160   -9.3822   15.0841 C   0  0  0  0  0  0  0  0  0  0  0  0
  1  3  4  0
  1 24  4  0
  2  6  4  0
  2 15  4  0
  3  5  4  0
  3  6  4  0
  4 21  4  0
  4 29  4  0
  5 15  4  0
  5 28  1  0
  6 16  4  0
  7 18  4  0
  7 26  4  0
  8 18  1  0
  8 19  4  0
  8 22  4  0
  9 12  4  0
  9 19  4  0
 10 12  4  0
 10 22  4  0
 11 20  4  0
 11 21  4  0
 12 23  1  0
 13 20  4  0
 13 29  4  0
 14 17  4  0
 14 28  4  0
 15 25  2  0
 16 27  4  0
 17 18  4  0
 20 27  1  0
 24 27  4  0
 26 28  4  0
M  END
$$$$

 Created by Python create_sdf_string function

 29 33  0  0  0  0  0  0  0  0999 V2000
    8.8270   -7.0288   18.4251 C   0  0  0  0  0  0  0  0  0  0  0  0
    9.1576   -4.6236   15.8860 O   0  0  0  0  0  0  0  0  0  0  0  0
    9.1509   -5.9108   17.7177 C   0  0  0  0  0  0  0  0  0  0  0  0
    3.6373   -9.5349   16.0582 N   0  0  0  0  0  0  0  0  0  0  0  0
    9.9275   -4.8001   18.0438 N   0  0  0  0  0  0  0  0  0  0  0  0
    8.5908   -5.7425   16.4412 C   0  0  0  0  0  0  0  0  0  0  0  0
   10.5993   -4.8981   21.6068 C   0  0  0  0  0  0  0  0  0  0  0  0
   10.4258   -3.0106   23.0998 C   0  0  0  0  0  0  0  0  0  0  0  0
   10.2148   -3.4364   25.4200 C   0  0  0  0  0  0  0  0  0  0  0  0
    9.7853   -1.1840   24.4927 C   0  0  0  0  0  0  0  0  0  0  0  0
    5.0276   -8.5227   17.5352 C   0  0  0  0  0  0  0  0  0  0  0  0
    9.8187   -2.0895   25.5800 C   0  0  0  0  0  0  0  0  0  0  0  0
    5.6473   -8.7216   15.3158 C   0  0  0  0  0  0  0  0  0  0  0  0
   10.7581   -3.1233   19.4720 N   0  0  0  0  0  0  0  0  0  0  0  0
    9.9571   -4.0573   16.8866 C   0  0  0  0  0  0  0  0  0  0  0  0
    7.6213   -6.5618   16.0087 C   0  0  0  0  0  0  0  0  0  0  0  0
   10.8583   -2.6527   20.7222 C   0  0  0  0  0  0  0  0  0  0  0  0
   10.6412   -3.5089   21.7936 C   0  0  0  0  0  0  0  0  0  0  0  0
   10.4972   -3.8968   24.1589 C   0  0  0  0  0  0  0  0  0  0  0  0
    5.9260   -8.2736   16.5517 C   0  0  0  0  0  0  0  0  0  0  0  0
    3.8816   -9.1166   17.2493 C   0  0  0  0  0  0  0  0  0  0  0  0
   10.1297   -1.6575   23.2324 C   0  0  0  0  0  0  0  0  0  0  0  0
    9.4684   -1.6929   26.7263 F   0  0  0  0  0  0  0  0  0  0  0  0
    7.7963   -7.7906   17.9837 C   0  0  0  0  0  0  0  0  0  0  0  0
   10.5884   -3.0725   16.7902 O   0  0  0  0  0  0  0  0  0  0  0  0
   10.4323   -5.3494   20.3516 C   0  0  0  0  0  0  0  0  0  0  0  0
    7.1156   -7.5454   16.8218 C   0  0  0  0  0  0  0  0  0  0  0  0
   10.3885   -4.4388   19.2773 C   0  0  0  0  0  0  0  0  0  0  0  0
    4.5160   -9.3822   15.0841 C   0  0  0  0  0  0  0  0  0  0  0  0
  1  3  4  0
  1 24  4  0
  2  6  4  0
  2 15  4  0
  3  5  4  0
  3  6  4  0
  4 21  4  0
  4 29  4  0
  5 15  4  0
  5 28  1  0
  6 16  4  0
  7 18  4  0
  7 26  4  0
  8 18  1  0
  8 19  4  0
  8 22  4  0
  9 12  4  0
  9 19  4  0
 10 12  4  0
 10 22  4  0
 11 20  4  0
 11 21  4  0
 12 23  1  0
 13 20  4  0
 13 29  4  0
 14 17  4  0
 14 28  4  0
 15 25  2  0
 16 27  4  0
 17 18  4  0
 20 27  1  0
 24 27  4  0
 26 28  4  0
M  END
$$$$

 Created by Python create_sdf_string function

 29 33  0  0  0  0  0  0  0  0999 V2000
    8.8270   -7.0288   18.4251 C   0  0  0  0  0  0  0  0  0  0  0  0
    9.1576   -4.6236   15.8860 O   0  0  0  0  0  0  0  0  0  0  0  0
    9.1509   -5.9108   17.7177 C   0  0  0  0  0  0  0  0  0  0  0  0
    3.6373   -9.5349   16.0582 N   0  0  0  0  0  0  0  0  0  0  0  0
    9.9275   -4.8001   18.0438 N   0  0  0  0  0  0  0  0  0  0  0  0
    8.5908   -5.7425   16.4412 C   0  0  0  0  0  0  0  0  0  0  0  0
   10.5993   -4.8981   21.6068 C   0  0  0  0  0  0  0  0  0  0  0  0
   10.4258   -3.0106   23.0998 C   0  0  0  0  0  0  0  0  0  0  0  0
   10.2148   -3.4364   25.4200 C   0  0  0  0  0  0  0  0  0  0  0  0
    9.7853   -1.1840   24.4927 C   0  0  0  0  0  0  0  0  0  0  0  0
    5.0276   -8.5227   17.5352 C   0  0  0  0  0  0  0  0  0  0  0  0
    9.8187   -2.0895   25.5800 C   0  0  0  0  0  0  0  0  0  0  0  0
    5.6473   -8.7216   15.3158 C   0  0  0  0  0  0  0  0  0  0  0  0
   10.7581   -3.1233   19.4720 N   0  0  0  0  0  0  0  0  0  0  0  0
    9.9571   -4.0573   16.8866 C   0  0  0  0  0  0  0  0  0  0  0  0
    7.6213   -6.5618   16.0087 C   0  0  0  0  0  0  0  0  0  0  0  0
   10.8583   -2.6527   20.7222 C   0  0  0  0  0  0  0  0  0  0  0  0
   10.6412   -3.5089   21.7936 C   0  0  0  0  0  0  0  0  0  0  0  0
   10.4972   -3.8968   24.1589 C   0  0  0  0  0  0  0  0  0  0  0  0
    5.9260   -8.2736   16.5517 C   0  0  0  0  0  0  0  0  0  0  0  0
    3.8816   -9.1166   17.2493 C   0  0  0  0  0  0  0  0  0  0  0  0
   10.1297   -1.6575   23.2324 C   0  0  0  0  0  0  0  0  0  0  0  0
    9.4684   -1.6929   26.7263 F   0  0  0  0  0  0  0  0  0  0  0  0
    7.7963   -7.7906   17.9837 C   0  0  0  0  0  0  0  0  0  0  0  0
   10.5884   -3.0725   16.7902 O   0  0  0  0  0  0  0  0  0  0  0  0
   10.4323   -5.3494   20.3516 C   0  0  0  0  0  0  0  0  0  0  0  0
    7.1156   -7.5454   16.8218 C   0  0  0  0  0  0  0  0  0  0  0  0
   10.3885   -4.4388   19.2773 C   0  0  0  0  0  0  0  0  0  0  0  0
    4.5160   -9.3822   15.0841 C   0  0  0  0  0  0  0  0  0  0  0  0
  1  3  4  0
  1 24  4  0
  2  6  4  0
  2 15  4  0
  3  5  4  0
  3  6  4  0
  4 21  4  0
  4 29  4  0
  5 15  4  0
  5 28  1  0
  6 16  4  0
  7 18  4  0
  7 26  4  0
  8 18  1  0
  8 19  4  0
  8 22  4  0
  9 12  4  0
  9 19  4  0
 10 12  4  0
 10 22  4  0
 11 20  4  0
 11 21  4  0
 12 23  1  0
 13 20  4  0
 13 29  4  0
 14 17  4  0
 14 28  4  0
 15 25  2  0
 16 27  4  0
 17 18  4  0
 20 27  1  0
 24 27  4  0
 26 28  4  0
M  END
$$$$

 Created by Python create_sdf_string function

 29 33  0  0  0  0  0  0  0  0999 V2000
    8.8270   -7.0288   18.4251 C   0  0  0  0  0  0  0  0  0  0  0  0
    9.1576   -4.6236   15.8860 O   0  0  0  0  0  0  0  0  0  0  0  0
    9.1509   -5.9108   17.7177 C   0  0  0  0  0  0  0  0  0  0  0  0
    3.6373   -9.5349   16.0582 N   0  0  0  0  0  0  0  0  0  0  0  0
    9.9275   -4.8001   18.0438 N   0  0  0  0  0  0  0  0  0  0  0  0
    8.5908   -5.7425   16.4412 C   0  0  0  0  0  0  0  0  0  0  0  0
   10.5993   -4.8981   21.6068 C   0  0  0  0  0  0  0  0  0  0  0  0
   10.4258   -3.0106   23.0998 C   0  0  0  0  0  0  0  0  0  0  0  0
   10.2148   -3.4364   25.4200 C   0  0  0  0  0  0  0  0  0  0  0  0
    9.7853   -1.1840   24.4927 C   0  0  0  0  0  0  0  0  0  0  0  0
    5.0276   -8.5227   17.5352 C   0  0  0  0  0  0  0  0  0  0  0  0
    9.8187   -2.0895   25.5800 C   0  0  0  0  0  0  0  0  0  0  0  0
    5.6473   -8.7216   15.3158 C   0  0  0  0  0  0  0  0  0  0  0  0
   10.7581   -3.1233   19.4720 N   0  0  0  0  0  0  0  0  0  0  0  0
    9.9571   -4.0573   16.8866 C   0  0  0  0  0  0  0  0  0  0  0  0
    7.6213   -6.5618   16.0087 C   0  0  0  0  0  0  0  0  0  0  0  0
   10.8583   -2.6527   20.7222 C   0  0  0  0  0  0  0  0  0  0  0  0
   10.6412   -3.5089   21.7936 C   0  0  0  0  0  0  0  0  0  0  0  0
   10.4972   -3.8968   24.1589 C   0  0  0  0  0  0  0  0  0  0  0  0
    5.9260   -8.2736   16.5517 C   0  0  0  0  0  0  0  0  0  0  0  0
    3.8816   -9.1166   17.2493 C   0  0  0  0  0  0  0  0  0  0  0  0
   10.1297   -1.6575   23.2324 C   0  0  0  0  0  0  0  0  0  0  0  0
    9.4684   -1.6929   26.7263 F   0  0  0  0  0  0  0  0  0  0  0  0
    7.7963   -7.7906   17.9837 C   0  0  0  0  0  0  0  0  0  0  0  0
   10.5884   -3.0725   16.7902 O   0  0  0  0  0  0  0  0  0  0  0  0
   10.4323   -5.3494   20.3516 C   0  0  0  0  0  0  0  0  0  0  0  0
    7.1156   -7.5454   16.8218 C   0  0  0  0  0  0  0  0  0  0  0  0
   10.3885   -4.4388   19.2773 C   0  0  0  0  0  0  0  0  0  0  0  0
    4.5160   -9.3822   15.0841 C   0  0  0  0  0  0  0  0  0  0  0  0
  1  3  4  0
  1 24  4  0
  2  6  4  0
  2 15  4  0
  3  5  4  0
  3  6  4  0
  4 21  4  0
  4 29  4  0
  5 15  4  0
  5 28  1  0
  6 16  4  0
  7 18  4  0
  7 26  4  0
  8 18  1  0
  8 19  4  0
  8 22  4  0
  9 12  4  0
  9 19  4  0
 10 12  4  0
 10 22  4  0
 11 20  4  0
 11 21  4  0
 12 23  1  0
 13 20  4  0
 13 29  4  0
 14 17  4  0
 14 28  4  0
 15 25  2  0
 16 27  4  0
 17 18  4  0
 20 27  1  0
 24 27  4  0
 26 28  4  0
M  END
$$$$

 Created by Python create_sdf_string function

 29 33  0  0  0  0  0  0  0  0999 V2000
    8.8270   -7.0288   18.4251 C   0  0  0  0  0  0  0  0  0  0  0  0
    9.1576   -4.6236   15.8860 O   0  0  0  0  0  0  0  0  0  0  0  0
    9.1509   -5.9108   17.7177 C   0  0  0  0  0  0  0  0  0  0  0  0
    3.6373   -9.5349   16.0582 N   0  0  0  0  0  0  0  0  0  0  0  0
    9.9275   -4.8001   18.0438 N   0  0  0  0  0  0  0  0  0  0  0  0
    8.5908   -5.7425   16.4412 C   0  0  0  0  0  0  0  0  0  0  0  0
   10.5993   -4.8981   21.6068 C   0  0  0  0  0  0  0  0  0  0  0  0
   10.4258   -3.0106   23.0998 C   0  0  0  0  0  0  0  0  0  0  0  0
   10.2148   -3.4364   25.4200 C   0  0  0  0  0  0  0  0  0  0  0  0
    9.7853   -1.1840   24.4927 C   0  0  0  0  0  0  0  0  0  0  0  0
    5.0276   -8.5227   17.5352 C   0  0  0  0  0  0  0  0  0  0  0  0
    9.8187   -2.0895   25.5800 C   0  0  0  0  0  0  0  0  0  0  0  0
    5.6473   -8.7216   15.3158 C   0  0  0  0  0  0  0  0  0  0  0  0
   10.7581   -3.1233   19.4720 N   0  0  0  0  0  0  0  0  0  0  0  0
    9.9571   -4.0573   16.8866 C   0  0  0  0  0  0  0  0  0  0  0  0
    7.6213   -6.5618   16.0087 C   0  0  0  0  0  0  0  0  0  0  0  0
   10.8583   -2.6527   20.7222 C   0  0  0  0  0  0  0  0  0  0  0  0
   10.6412   -3.5089   21.7936 C   0  0  0  0  0  0  0  0  0  0  0  0
   10.4972   -3.8968   24.1589 C   0  0  0  0  0  0  0  0  0  0  0  0
    5.9260   -8.2736   16.5517 C   0  0  0  0  0  0  0  0  0  0  0  0
    3.8816   -9.1166   17.2493 C   0  0  0  0  0  0  0  0  0  0  0  0
   10.1297   -1.6575   23.2324 C   0  0  0  0  0  0  0  0  0  0  0  0
    9.4684   -1.6929   26.7263 F   0  0  0  0  0  0  0  0  0  0  0  0
    7.7963   -7.7906   17.9837 C   0  0  0  0  0  0  0  0  0  0  0  0
   10.5884   -3.0725   16.7902 O   0  0  0  0  0  0  0  0  0  0  0  0
   10.4323   -5.3494   20.3516 C   0  0  0  0  0  0  0  0  0  0  0  0
    7.1156   -7.5454   16.8218 C   0  0  0  0  0  0  0  0  0  0  0  0
   10.3885   -4.4388   19.2773 C   0  0  0  0  0  0  0  0  0  0  0  0
    4.5160   -9.3822   15.0841 C   0  0  0  0  0  0  0  0  0  0  0  0
  1  3  4  0
  1 24  4  0
  2  6  4  0
  2 15  4  0
  3  5  4  0
  3  6  4  0
  4 21  4  0
  4 29  4  0
  5 15  4  0
  5 28  1  0
  6 16  4  0
  7 18  4  0
  7 26  4  0
  8 18  1  0
  8 19  4  0
  8 22  4  0
  9 12  4  0
  9 19  4  0
 10 12  4  0
 10 22  4  0
 11 20  4  0
 11 21  4  0
 12 23  1  0
 13 20  4  0
 13 29  4  0
 14 17  4  0
 14 28  4  0
 15 25  2  0
 16 27  4  0
 17 18  4  0
 20 27  1  0
 24 27  4  0
 26 28  4  0
M  END
$$$$

 Created by Python create_sdf_string function

 29 33  0  0  0  0  0  0  0  0999 V2000
    8.8270   -7.0288   18.4251 C   0  0  0  0  0  0  0  0  0  0  0  0
    9.1576   -4.6236   15.8860 O   0  0  0  0  0  0  0  0  0  0  0  0
    9.1509   -5.9108   17.7177 C   0  0  0  0  0  0  0  0  0  0  0  0
    3.6373   -9.5349   16.0582 N   0  0  0  0  0  0  0  0  0  0  0  0
    9.9275   -4.8001   18.0438 N   0  0  0  0  0  0  0  0  0  0  0  0
    8.5908   -5.7425   16.4412 C   0  0  0  0  0  0  0  0  0  0  0  0
   10.5993   -4.8981   21.6068 C   0  0  0  0  0  0  0  0  0  0  0  0
   10.4258   -3.0106   23.0998 C   0  0  0  0  0  0  0  0  0  0  0  0
   10.2148   -3.4364   25.4200 C   0  0  0  0  0  0  0  0  0  0  0  0
    9.7853   -1.1840   24.4927 C   0  0  0  0  0  0  0  0  0  0  0  0
    5.0276   -8.5227   17.5352 C   0  0  0  0  0  0  0  0  0  0  0  0
    9.8187   -2.0895   25.5800 C   0  0  0  0  0  0  0  0  0  0  0  0
    5.6473   -8.7216   15.3158 C   0  0  0  0  0  0  0  0  0  0  0  0
   10.7581   -3.1233   19.4720 N   0  0  0  0  0  0  0  0  0  0  0  0
    9.9571   -4.0573   16.8866 C   0  0  0  0  0  0  0  0  0  0  0  0
    7.6213   -6.5618   16.0087 C   0  0  0  0  0  0  0  0  0  0  0  0
   10.8583   -2.6527   20.7222 C   0  0  0  0  0  0  0  0  0  0  0  0
   10.6412   -3.5089   21.7936 C   0  0  0  0  0  0  0  0  0  0  0  0
   10.4972   -3.8968   24.1589 C   0  0  0  0  0  0  0  0  0  0  0  0
    5.9260   -8.2736   16.5517 C   0  0  0  0  0  0  0  0  0  0  0  0
    3.8816   -9.1166   17.2493 C   0  0  0  0  0  0  0  0  0  0  0  0
   10.1297   -1.6575   23.2324 C   0  0  0  0  0  0  0  0  0  0  0  0
    9.4684   -1.6929   26.7263 F   0  0  0  0  0  0  0  0  0  0  0  0
    7.7963   -7.7906   17.9837 C   0  0  0  0  0  0  0  0  0  0  0  0
   10.5884   -3.0725   16.7902 O   0  0  0  0  0  0  0  0  0  0  0  0
   10.4323   -5.3494   20.3516 C   0  0  0  0  0  0  0  0  0  0  0  0
    7.1156   -7.5454   16.8218 C   0  0  0  0  0  0  0  0  0  0  0  0
   10.3885   -4.4388   19.2773 C   0  0  0  0  0  0  0  0  0  0  0  0
    4.5160   -9.3822   15.0841 C   0  0  0  0  0  0  0  0  0  0  0  0
  1  3  4  0
  1 24  4  0
  2  6  4  0
  2 15  4  0
  3  5  4  0
  3  6  4  0
  4 21  4  0
  4 29  4  0
  5 15  4  0
  5 28  1  0
  6 16  4  0
  7 18  4  0
  7 26  4  0
  8 18  1  0
  8 19  4  0
  8 22  4  0
  9 12  4  0
  9 19  4  0
 10 12  4  0
 10 22  4  0
 11 20  4  0
 11 21  4  0
 12 23  1  0
 13 20  4  0
 13 29  4  0
 14 17  4  0
 14 28  4  0
 15 25  2  0
 16 27  4  0
 17 18  4  0
 20 27  1  0
 24 27  4  0
 26 28  4  0
M  END
$$$$

 Created by Python create_sdf_string function

 29 33  0  0  0  0  0  0  0  0999 V2000
    8.8270   -7.0288   18.4251 C   0  0  0  0  0  0  0  0  0  0  0  0
    9.1576   -4.6236   15.8860 O   0  0  0  0  0  0  0  0  0  0  0  0
    9.1509   -5.9108   17.7177 C   0  0  0  0  0  0  0  0  0  0  0  0
    3.6373   -9.5349   16.0582 N   0  0  0  0  0  0  0  0  0  0  0  0
    9.9275   -4.8001   18.0438 N   0  0  0  0  0  0  0  0  0  0  0  0
    8.5908   -5.7425   16.4412 C   0  0  0  0  0  0  0  0  0  0  0  0
   10.5993   -4.8981   21.6068 C   0  0  0  0  0  0  0  0  0  0  0  0
   10.4258   -3.0106   23.0998 C   0  0  0  0  0  0  0  0  0  0  0  0
   10.2148   -3.4364   25.4200 C   0  0  0  0  0  0  0  0  0  0  0  0
    9.7853   -1.1840   24.4927 C   0  0  0  0  0  0  0  0  0  0  0  0
    5.0276   -8.5227   17.5352 C   0  0  0  0  0  0  0  0  0  0  0  0
    9.8187   -2.0895   25.5800 C   0  0  0  0  0  0  0  0  0  0  0  0
    5.6473   -8.7216   15.3158 C   0  0  0  0  0  0  0  0  0  0  0  0
   10.7581   -3.1233   19.4720 N   0  0  0  0  0  0  0  0  0  0  0  0
    9.9571   -4.0573   16.8866 C   0  0  0  0  0  0  0  0  0  0  0  0
    7.6213   -6.5618   16.0087 C   0  0  0  0  0  0  0  0  0  0  0  0
   10.8583   -2.6527   20.7222 C   0  0  0  0  0  0  0  0  0  0  0  0
   10.6412   -3.5089   21.7936 C   0  0  0  0  0  0  0  0  0  0  0  0
   10.4972   -3.8968   24.1589 C   0  0  0  0  0  0  0  0  0  0  0  0
    5.9260   -8.2736   16.5517 C   0  0  0  0  0  0  0  0  0  0  0  0
    3.8816   -9.1166   17.2493 C   0  0  0  0  0  0  0  0  0  0  0  0
   10.1297   -1.6575   23.2324 C   0  0  0  0  0  0  0  0  0  0  0  0
    9.4684   -1.6929   26.7263 F   0  0  0  0  0  0  0  0  0  0  0  0
    7.7963   -7.7906   17.9837 C   0  0  0  0  0  0  0  0  0  0  0  0
   10.5884   -3.0725   16.7902 O   0  0  0  0  0  0  0  0  0  0  0  0
   10.4323   -5.3494   20.3516 C   0  0  0  0  0  0  0  0  0  0  0  0
    7.1156   -7.5454   16.8218 C   0  0  0  0  0  0  0  0  0  0  0  0
   10.3885   -4.4388   19.2773 C   0  0  0  0  0  0  0  0  0  0  0  0
    4.5160   -9.3822   15.0841 C   0  0  0  0  0  0  0  0  0  0  0  0
  1  3  4  0
  1 24  4  0
  2  6  4  0
  2 15  4  0
  3  5  4  0
  3  6  4  0
  4 21  4  0
  4 29  4  0
  5 15  4  0
  5 28  1  0
  6 16  4  0
  7 18  4  0
  7 26  4  0
  8 18  1  0
  8 19  4  0
  8 22  4  0
  9 12  4  0
  9 19  4  0
 10 12  4  0
 10 22  4  0
 11 20  4  0
 11 21  4  0
 12 23  1  0
 13 20  4  0
 13 29  4  0
 14 17  4  0
 14 28  4  0
 15 25  2  0
 16 27  4  0
 17 18  4  0
 20 27  1  0
 24 27  4  0
 26 28  4  0
M  END
$$$$

 Created by Python create_sdf_string function

 29 33  0  0  0  0  0  0  0  0999 V2000
    8.8270   -7.0288   18.4251 C   0  0  0  0  0  0  0  0  0  0  0  0
    9.1576   -4.6236   15.8860 O   0  0  0  0  0  0  0  0  0  0  0  0
    9.1509   -5.9108   17.7177 C   0  0  0  0  0  0  0  0  0  0  0  0
    3.6373   -9.5349   16.0582 N   0  0  0  0  0  0  0  0  0  0  0  0
    9.9275   -4.8001   18.0438 N   0  0  0  0  0  0  0  0  0  0  0  0
    8.5908   -5.7425   16.4412 C   0  0  0  0  0  0  0  0  0  0  0  0
   10.5993   -4.8981   21.6068 C   0  0  0  0  0  0  0  0  0  0  0  0
   10.4258   -3.0106   23.0998 C   0  0  0  0  0  0  0  0  0  0  0  0
   10.2148   -3.4364   25.4200 C   0  0  0  0  0  0  0  0  0  0  0  0
    9.7853   -1.1840   24.4927 C   0  0  0  0  0  0  0  0  0  0  0  0
    5.0276   -8.5227   17.5352 C   0  0  0  0  0  0  0  0  0  0  0  0
    9.8187   -2.0895   25.5800 C   0  0  0  0  0  0  0  0  0  0  0  0
    5.6473   -8.7216   15.3158 C   0  0  0  0  0  0  0  0  0  0  0  0
   10.7581   -3.1233   19.4720 N   0  0  0  0  0  0  0  0  0  0  0  0
    9.9571   -4.0573   16.8866 C   0  0  0  0  0  0  0  0  0  0  0  0
    7.6213   -6.5618   16.0087 C   0  0  0  0  0  0  0  0  0  0  0  0
   10.8583   -2.6527   20.7222 C   0  0  0  0  0  0  0  0  0  0  0  0
   10.6412   -3.5089   21.7936 C   0  0  0  0  0  0  0  0  0  0  0  0
   10.4972   -3.8968   24.1589 C   0  0  0  0  0  0  0  0  0  0  0  0
    5.9260   -8.2736   16.5517 C   0  0  0  0  0  0  0  0  0  0  0  0
    3.8816   -9.1166   17.2493 C   0  0  0  0  0  0  0  0  0  0  0  0
   10.1297   -1.6575   23.2324 C   0  0  0  0  0  0  0  0  0  0  0  0
    9.4684   -1.6929   26.7263 F   0  0  0  0  0  0  0  0  0  0  0  0
    7.7963   -7.7906   17.9837 C   0  0  0  0  0  0  0  0  0  0  0  0
   10.5884   -3.0725   16.7902 O   0  0  0  0  0  0  0  0  0  0  0  0
   10.4323   -5.3494   20.3516 C   0  0  0  0  0  0  0  0  0  0  0  0
    7.1156   -7.5454   16.8218 C   0  0  0  0  0  0  0  0  0  0  0  0
   10.3885   -4.4388   19.2773 C   0  0  0  0  0  0  0  0  0  0  0  0
    4.5160   -9.3822   15.0841 C   0  0  0  0  0  0  0  0  0  0  0  0
  1  3  4  0
  1 24  4  0
  2  6  4  0
  2 15  4  0
  3  5  4  0
  3  6  4  0
  4 21  4  0
  4 29  4  0
  5 15  4  0
  5 28  1  0
  6 16  4  0
  7 18  4  0
  7 26  4  0
  8 18  1  0
  8 19  4  0
  8 22  4  0
  9 12  4  0
  9 19  4  0
 10 12  4  0
 10 22  4  0
 11 20  4  0
 11 21  4  0
 12 23  1  0
 13 20  4  0
 13 29  4  0
 14 17  4  0
 14 28  4  0
 15 25  2  0
 16 27  4  0
 17 18  4  0
 20 27  1  0
 24 27  4  0
 26 28  4  0
M  END
$$$$

 Created by Python create_sdf_string function

 29 33  0  0  0  0  0  0  0  0999 V2000
    8.8270   -7.0288   18.4251 C   0  0  0  0  0  0  0  0  0  0  0  0
    9.1576   -4.6236   15.8860 O   0  0  0  0  0  0  0  0  0  0  0  0
    9.1509   -5.9108   17.7177 C   0  0  0  0  0  0  0  0  0  0  0  0
    3.6373   -9.5349   16.0582 N   0  0  0  0  0  0  0  0  0  0  0  0
    9.9275   -4.8001   18.0438 N   0  0  0  0  0  0  0  0  0  0  0  0
    8.5908   -5.7425   16.4412 C   0  0  0  0  0  0  0  0  0  0  0  0
   10.5993   -4.8981   21.6068 C   0  0  0  0  0  0  0  0  0  0  0  0
   10.4258   -3.0106   23.0998 C   0  0  0  0  0  0  0  0  0  0  0  0
   10.2148   -3.4364   25.4200 C   0  0  0  0  0  0  0  0  0  0  0  0
    9.7853   -1.1840   24.4927 C   0  0  0  0  0  0  0  0  0  0  0  0
    5.0276   -8.5227   17.5352 C   0  0  0  0  0  0  0  0  0  0  0  0
    9.8187   -2.0895   25.5800 C   0  0  0  0  0  0  0  0  0  0  0  0
    5.6473   -8.7216   15.3158 C   0  0  0  0  0  0  0  0  0  0  0  0
   10.7581   -3.1233   19.4720 N   0  0  0  0  0  0  0  0  0  0  0  0
    9.9571   -4.0573   16.8866 C   0  0  0  0  0  0  0  0  0  0  0  0
    7.6213   -6.5618   16.0087 C   0  0  0  0  0  0  0  0  0  0  0  0
   10.8583   -2.6527   20.7222 C   0  0  0  0  0  0  0  0  0  0  0  0
   10.6412   -3.5089   21.7936 C   0  0  0  0  0  0  0  0  0  0  0  0
   10.4972   -3.8968   24.1589 C   0  0  0  0  0  0  0  0  0  0  0  0
    5.9260   -8.2736   16.5517 C   0  0  0  0  0  0  0  0  0  0  0  0
    3.8816   -9.1166   17.2493 C   0  0  0  0  0  0  0  0  0  0  0  0
   10.1297   -1.6575   23.2324 C   0  0  0  0  0  0  0  0  0  0  0  0
    9.4684   -1.6929   26.7263 F   0  0  0  0  0  0  0  0  0  0  0  0
    7.7963   -7.7906   17.9837 C   0  0  0  0  0  0  0  0  0  0  0  0
   10.5884   -3.0725   16.7902 O   0  0  0  0  0  0  0  0  0  0  0  0
   10.4323   -5.3494   20.3516 C   0  0  0  0  0  0  0  0  0  0  0  0
    7.1156   -7.5454   16.8218 C   0  0  0  0  0  0  0  0  0  0  0  0
   10.3885   -4.4388   19.2773 C   0  0  0  0  0  0  0  0  0  0  0  0
    4.5160   -9.3822   15.0841 C   0  0  0  0  0  0  0  0  0  0  0  0
  1  3  4  0
  1 24  4  0
  2  6  4  0
  2 15  4  0
  3  5  4  0
  3  6  4  0
  4 21  4  0
  4 29  4  0
  5 15  4  0
  5 28  1  0
  6 16  4  0
  7 18  4  0
  7 26  4  0
  8 18  1  0
  8 19  4  0
  8 22  4  0
  9 12  4  0
  9 19  4  0
 10 12  4  0
 10 22  4  0
 11 20  4  0
 11 21  4  0
 12 23  1  0
 13 20  4  0
 13 29  4  0
 14 17  4  0
 14 28  4  0
 15 25  2  0
 16 27  4  0
 17 18  4  0
 20 27  1  0
 24 27  4  0
 26 28  4  0
M  END
$$$$

 Created by Python create_sdf_string function

 29 33  0  0  0  0  0  0  0  0999 V2000
    8.8270   -7.0288   18.4251 C   0  0  0  0  0  0  0  0  0  0  0  0
    9.1576   -4.6236   15.8860 O   0  0  0  0  0  0  0  0  0  0  0  0
    9.1509   -5.9108   17.7177 C   0  0  0  0  0  0  0  0  0  0  0  0
    3.6373   -9.5349   16.0582 N   0  0  0  0  0  0  0  0  0  0  0  0
    9.9275   -4.8001   18.0438 N   0  0  0  0  0  0  0  0  0  0  0  0
    8.5908   -5.7425   16.4412 C   0  0  0  0  0  0  0  0  0  0  0  0
   10.5993   -4.8981   21.6068 C   0  0  0  0  0  0  0  0  0  0  0  0
   10.4258   -3.0106   23.0998 C   0  0  0  0  0  0  0  0  0  0  0  0
   10.2148   -3.4364   25.4200 C   0  0  0  0  0  0  0  0  0  0  0  0
    9.7853   -1.1840   24.4927 C   0  0  0  0  0  0  0  0  0  0  0  0
    5.0276   -8.5227   17.5352 C   0  0  0  0  0  0  0  0  0  0  0  0
    9.8187   -2.0895   25.5800 C   0  0  0  0  0  0  0  0  0  0  0  0
    5.6473   -8.7216   15.3158 C   0  0  0  0  0  0  0  0  0  0  0  0
   10.7581   -3.1233   19.4720 N   0  0  0  0  0  0  0  0  0  0  0  0
    9.9571   -4.0573   16.8866 C   0  0  0  0  0  0  0  0  0  0  0  0
    7.6213   -6.5618   16.0087 C   0  0  0  0  0  0  0  0  0  0  0  0
   10.8583   -2.6527   20.7222 C   0  0  0  0  0  0  0  0  0  0  0  0
   10.6412   -3.5089   21.7936 C   0  0  0  0  0  0  0  0  0  0  0  0
   10.4972   -3.8968   24.1589 C   0  0  0  0  0  0  0  0  0  0  0  0
    5.9260   -8.2736   16.5517 C   0  0  0  0  0  0  0  0  0  0  0  0
    3.8816   -9.1166   17.2493 C   0  0  0  0  0  0  0  0  0  0  0  0
   10.1297   -1.6575   23.2324 C   0  0  0  0  0  0  0  0  0  0  0  0
    9.4684   -1.6929   26.7263 F   0  0  0  0  0  0  0  0  0  0  0  0
    7.7963   -7.7906   17.9837 C   0  0  0  0  0  0  0  0  0  0  0  0
   10.5884   -3.0725   16.7902 O   0  0  0  0  0  0  0  0  0  0  0  0
   10.4323   -5.3494   20.3516 C   0  0  0  0  0  0  0  0  0  0  0  0
    7.1156   -7.5454   16.8218 C   0  0  0  0  0  0  0  0  0  0  0  0
   10.3885   -4.4388   19.2773 C   0  0  0  0  0  0  0  0  0  0  0  0
    4.5160   -9.3822   15.0841 C   0  0  0  0  0  0  0  0  0  0  0  0
  1  3  4  0
  1 24  4  0
  2  6  4  0
  2 15  4  0
  3  5  4  0
  3  6  4  0
  4 21  4  0
  4 29  4  0
  5 15  4  0
  5 28  1  0
  6 16  4  0
  7 18  4  0
  7 26  4  0
  8 18  1  0
  8 19  4  0
  8 22  4  0
  9 12  4  0
  9 19  4  0
 10 12  4  0
 10 22  4  0
 11 20  4  0
 11 21  4  0
 12 23  1  0
 13 20  4  0
 13 29  4  0
 14 17  4  0
 14 28  4  0
 15 25  2  0
 16 27  4  0
 17 18  4  0
 20 27  1  0
 24 27  4  0
 26 28  4  0
M  END
$$$$

 Created by Python create_sdf_string function

 29 33  0  0  0  0  0  0  0  0999 V2000
    8.8270   -7.0288   18.4251 C   0  0  0  0  0  0  0  0  0  0  0  0
    9.1576   -4.6236   15.8860 O   0  0  0  0  0  0  0  0  0  0  0  0
    9.1509   -5.9108   17.7177 C   0  0  0  0  0  0  0  0  0  0  0  0
    3.6373   -9.5349   16.0582 N   0  0  0  0  0  0  0  0  0  0  0  0
    9.9275   -4.8001   18.0438 N   0  0  0  0  0  0  0  0  0  0  0  0
    8.5908   -5.7425   16.4412 C   0  0  0  0  0  0  0  0  0  0  0  0
   10.5993   -4.8981   21.6068 C   0  0  0  0  0  0  0  0  0  0  0  0
   10.4258   -3.0106   23.0998 C   0  0  0  0  0  0  0  0  0  0  0  0
   10.2148   -3.4364   25.4200 C   0  0  0  0  0  0  0  0  0  0  0  0
    9.7853   -1.1840   24.4927 C   0  0  0  0  0  0  0  0  0  0  0  0
    5.0276   -8.5227   17.5352 C   0  0  0  0  0  0  0  0  0  0  0  0
    9.8187   -2.0895   25.5800 C   0  0  0  0  0  0  0  0  0  0  0  0
    5.6473   -8.7216   15.3158 C   0  0  0  0  0  0  0  0  0  0  0  0
   10.7581   -3.1233   19.4720 N   0  0  0  0  0  0  0  0  0  0  0  0
    9.9571   -4.0573   16.8866 C   0  0  0  0  0  0  0  0  0  0  0  0
    7.6213   -6.5618   16.0087 C   0  0  0  0  0  0  0  0  0  0  0  0
   10.8583   -2.6527   20.7222 C   0  0  0  0  0  0  0  0  0  0  0  0
   10.6412   -3.5089   21.7936 C   0  0  0  0  0  0  0  0  0  0  0  0
   10.4972   -3.8968   24.1589 C   0  0  0  0  0  0  0  0  0  0  0  0
    5.9260   -8.2736   16.5517 C   0  0  0  0  0  0  0  0  0  0  0  0
    3.8816   -9.1166   17.2493 C   0  0  0  0  0  0  0  0  0  0  0  0
   10.1297   -1.6575   23.2324 C   0  0  0  0  0  0  0  0  0  0  0  0
    9.4684   -1.6929   26.7263 F   0  0  0  0  0  0  0  0  0  0  0  0
    7.7963   -7.7906   17.9837 C   0  0  0  0  0  0  0  0  0  0  0  0
   10.5884   -3.0725   16.7902 O   0  0  0  0  0  0  0  0  0  0  0  0
   10.4323   -5.3494   20.3516 C   0  0  0  0  0  0  0  0  0  0  0  0
    7.1156   -7.5454   16.8218 C   0  0  0  0  0  0  0  0  0  0  0  0
   10.3885   -4.4388   19.2773 C   0  0  0  0  0  0  0  0  0  0  0  0
    4.5160   -9.3822   15.0841 C   0  0  0  0  0  0  0  0  0  0  0  0
  1  3  4  0
  1 24  4  0
  2  6  4  0
  2 15  4  0
  3  5  4  0
  3  6  4  0
  4 21  4  0
  4 29  4  0
  5 15  4  0
  5 28  1  0
  6 16  4  0
  7 18  4  0
  7 26  4  0
  8 18  1  0
  8 19  4  0
  8 22  4  0
  9 12  4  0
  9 19  4  0
 10 12  4  0
 10 22  4  0
 11 20  4  0
 11 21  4  0
 12 23  1  0
 13 20  4  0
 13 29  4  0
 14 17  4  0
 14 28  4  0
 15 25  2  0
 16 27  4  0
 17 18  4  0
 20 27  1  0
 24 27  4  0
 26 28  4  0
M  END
$$$$

 Created by Python create_sdf_string function

 29 33  0  0  0  0  0  0  0  0999 V2000
    8.8270   -7.0288   18.4251 C   0  0  0  0  0  0  0  0  0  0  0  0
    9.1576   -4.6236   15.8860 O   0  0  0  0  0  0  0  0  0  0  0  0
    9.1509   -5.9108   17.7177 C   0  0  0  0  0  0  0  0  0  0  0  0
    3.6373   -9.5349   16.0582 N   0  0  0  0  0  0  0  0  0  0  0  0
    9.9275   -4.8001   18.0438 N   0  0  0  0  0  0  0  0  0  0  0  0
    8.5908   -5.7425   16.4412 C   0  0  0  0  0  0  0  0  0  0  0  0
   10.5993   -4.8981   21.6068 C   0  0  0  0  0  0  0  0  0  0  0  0
   10.4258   -3.0106   23.0998 C   0  0  0  0  0  0  0  0  0  0  0  0
   10.2148   -3.4364   25.4200 C   0  0  0  0  0  0  0  0  0  0  0  0
    9.7853   -1.1840   24.4927 C   0  0  0  0  0  0  0  0  0  0  0  0
    5.0276   -8.5227   17.5352 C   0  0  0  0  0  0  0  0  0  0  0  0
    9.8187   -2.0895   25.5800 C   0  0  0  0  0  0  0  0  0  0  0  0
    5.6473   -8.7216   15.3158 C   0  0  0  0  0  0  0  0  0  0  0  0
   10.7581   -3.1233   19.4720 N   0  0  0  0  0  0  0  0  0  0  0  0
    9.9571   -4.0573   16.8866 C   0  0  0  0  0  0  0  0  0  0  0  0
    7.6213   -6.5618   16.0087 C   0  0  0  0  0  0  0  0  0  0  0  0
   10.8583   -2.6527   20.7222 C   0  0  0  0  0  0  0  0  0  0  0  0
   10.6412   -3.5089   21.7936 C   0  0  0  0  0  0  0  0  0  0  0  0
   10.4972   -3.8968   24.1589 C   0  0  0  0  0  0  0  0  0  0  0  0
    5.9260   -8.2736   16.5517 C   0  0  0  0  0  0  0  0  0  0  0  0
    3.8816   -9.1166   17.2493 C   0  0  0  0  0  0  0  0  0  0  0  0
   10.1297   -1.6575   23.2324 C   0  0  0  0  0  0  0  0  0  0  0  0
    9.4684   -1.6929   26.7263 F   0  0  0  0  0  0  0  0  0  0  0  0
    7.7963   -7.7906   17.9837 C   0  0  0  0  0  0  0  0  0  0  0  0
   10.5884   -3.0725   16.7902 O   0  0  0  0  0  0  0  0  0  0  0  0
   10.4323   -5.3494   20.3516 C   0  0  0  0  0  0  0  0  0  0  0  0
    7.1156   -7.5454   16.8218 C   0  0  0  0  0  0  0  0  0  0  0  0
   10.3885   -4.4388   19.2773 C   0  0  0  0  0  0  0  0  0  0  0  0
    4.5160   -9.3822   15.0841 C   0  0  0  0  0  0  0  0  0  0  0  0
  1  3  4  0
  1 24  4  0
  2  6  4  0
  2 15  4  0
  3  5  4  0
  3  6  4  0
  4 21  4  0
  4 29  4  0
  5 15  4  0
  5 28  1  0
  6 16  4  0
  7 18  4  0
  7 26  4  0
  8 18  1  0
  8 19  4  0
  8 22  4  0
  9 12  4  0
  9 19  4  0
 10 12  4  0
 10 22  4  0
 11 20  4  0
 11 21  4  0
 12 23  1  0
 13 20  4  0
 13 29  4  0
 14 17  4  0
 14 28  4  0
 15 25  2  0
 16 27  4  0
 17 18  4  0
 20 27  1  0
 24 27  4  0
 26 28  4  0
M  END
$$$$

 Created by Python create_sdf_string function

 29 33  0  0  0  0  0  0  0  0999 V2000
    8.8270   -7.0288   18.4251 C   0  0  0  0  0  0  0  0  0  0  0  0
    9.1576   -4.6236   15.8860 O   0  0  0  0  0  0  0  0  0  0  0  0
    9.1509   -5.9108   17.7177 C   0  0  0  0  0  0  0  0  0  0  0  0
    3.6373   -9.5349   16.0582 N   0  0  0  0  0  0  0  0  0  0  0  0
    9.9275   -4.8001   18.0438 N   0  0  0  0  0  0  0  0  0  0  0  0
    8.5908   -5.7425   16.4412 C   0  0  0  0  0  0  0  0  0  0  0  0
   10.5993   -4.8981   21.6068 C   0  0  0  0  0  0  0  0  0  0  0  0
   10.4258   -3.0106   23.0998 C   0  0  0  0  0  0  0  0  0  0  0  0
   10.2148   -3.4364   25.4200 C   0  0  0  0  0  0  0  0  0  0  0  0
    9.7853   -1.1840   24.4927 C   0  0  0  0  0  0  0  0  0  0  0  0
    5.0276   -8.5227   17.5352 C   0  0  0  0  0  0  0  0  0  0  0  0
    9.8187   -2.0895   25.5800 C   0  0  0  0  0  0  0  0  0  0  0  0
    5.6473   -8.7216   15.3158 C   0  0  0  0  0  0  0  0  0  0  0  0
   10.7581   -3.1233   19.4720 N   0  0  0  0  0  0  0  0  0  0  0  0
    9.9571   -4.0573   16.8866 C   0  0  0  0  0  0  0  0  0  0  0  0
    7.6213   -6.5618   16.0087 C   0  0  0  0  0  0  0  0  0  0  0  0
   10.8583   -2.6527   20.7222 C   0  0  0  0  0  0  0  0  0  0  0  0
   10.6412   -3.5089   21.7936 C   0  0  0  0  0  0  0  0  0  0  0  0
   10.4972   -3.8968   24.1589 C   0  0  0  0  0  0  0  0  0  0  0  0
    5.9260   -8.2736   16.5517 C   0  0  0  0  0  0  0  0  0  0  0  0
    3.8816   -9.1166   17.2493 C   0  0  0  0  0  0  0  0  0  0  0  0
   10.1297   -1.6575   23.2324 C   0  0  0  0  0  0  0  0  0  0  0  0
    9.4684   -1.6929   26.7263 F   0  0  0  0  0  0  0  0  0  0  0  0
    7.7963   -7.7906   17.9837 C   0  0  0  0  0  0  0  0  0  0  0  0
   10.5884   -3.0725   16.7902 O   0  0  0  0  0  0  0  0  0  0  0  0
   10.4323   -5.3494   20.3516 C   0  0  0  0  0  0  0  0  0  0  0  0
    7.1156   -7.5454   16.8218 C   0  0  0  0  0  0  0  0  0  0  0  0
   10.3885   -4.4388   19.2773 C   0  0  0  0  0  0  0  0  0  0  0  0
    4.5160   -9.3822   15.0841 C   0  0  0  0  0  0  0  0  0  0  0  0
  1  3  4  0
  1 24  4  0
  2  6  4  0
  2 15  4  0
  3  5  4  0
  3  6  4  0
  4 21  4  0
  4 29  4  0
  5 15  4  0
  5 28  1  0
  6 16  4  0
  7 18  4  0
  7 26  4  0
  8 18  1  0
  8 19  4  0
  8 22  4  0
  9 12  4  0
  9 19  4  0
 10 12  4  0
 10 22  4  0
 11 20  4  0
 11 21  4  0
 12 23  1  0
 13 20  4  0
 13 29  4  0
 14 17  4  0
 14 28  4  0
 15 25  2  0
 16 27  4  0
 17 18  4  0
 20 27  1  0
 24 27  4  0
 26 28  4  0
M  END
$$$$

 Created by Python create_sdf_string function

 29 33  0  0  0  0  0  0  0  0999 V2000
    8.8270   -7.0288   18.4251 C   0  0  0  0  0  0  0  0  0  0  0  0
    9.1576   -4.6236   15.8860 O   0  0  0  0  0  0  0  0  0  0  0  0
    9.1509   -5.9108   17.7177 C   0  0  0  0  0  0  0  0  0  0  0  0
    3.6373   -9.5349   16.0582 N   0  0  0  0  0  0  0  0  0  0  0  0
    9.9275   -4.8001   18.0438 N   0  0  0  0  0  0  0  0  0  0  0  0
    8.5908   -5.7425   16.4412 C   0  0  0  0  0  0  0  0  0  0  0  0
   10.5993   -4.8981   21.6068 C   0  0  0  0  0  0  0  0  0  0  0  0
   10.4258   -3.0106   23.0998 C   0  0  0  0  0  0  0  0  0  0  0  0
   10.2148   -3.4364   25.4200 C   0  0  0  0  0  0  0  0  0  0  0  0
    9.7853   -1.1840   24.4927 C   0  0  0  0  0  0  0  0  0  0  0  0
    5.0276   -8.5227   17.5352 C   0  0  0  0  0  0  0  0  0  0  0  0
    9.8187   -2.0895   25.5800 C   0  0  0  0  0  0  0  0  0  0  0  0
    5.6473   -8.7216   15.3158 C   0  0  0  0  0  0  0  0  0  0  0  0
   10.7581   -3.1233   19.4720 N   0  0  0  0  0  0  0  0  0  0  0  0
    9.9571   -4.0573   16.8866 C   0  0  0  0  0  0  0  0  0  0  0  0
    7.6213   -6.5618   16.0087 C   0  0  0  0  0  0  0  0  0  0  0  0
   10.8583   -2.6527   20.7222 C   0  0  0  0  0  0  0  0  0  0  0  0
   10.6412   -3.5089   21.7936 C   0  0  0  0  0  0  0  0  0  0  0  0
   10.4972   -3.8968   24.1589 C   0  0  0  0  0  0  0  0  0  0  0  0
    5.9260   -8.2736   16.5517 C   0  0  0  0  0  0  0  0  0  0  0  0
    3.8816   -9.1166   17.2493 C   0  0  0  0  0  0  0  0  0  0  0  0
   10.1297   -1.6575   23.2324 C   0  0  0  0  0  0  0  0  0  0  0  0
    9.4684   -1.6929   26.7263 F   0  0  0  0  0  0  0  0  0  0  0  0
    7.7963   -7.7906   17.9837 C   0  0  0  0  0  0  0  0  0  0  0  0
   10.5884   -3.0725   16.7902 O   0  0  0  0  0  0  0  0  0  0  0  0
   10.4323   -5.3494   20.3516 C   0  0  0  0  0  0  0  0  0  0  0  0
    7.1156   -7.5454   16.8218 C   0  0  0  0  0  0  0  0  0  0  0  0
   10.3885   -4.4388   19.2773 C   0  0  0  0  0  0  0  0  0  0  0  0
    4.5160   -9.3822   15.0841 C   0  0  0  0  0  0  0  0  0  0  0  0
  1  3  4  0
  1 24  4  0
  2  6  4  0
  2 15  4  0
  3  5  4  0
  3  6  4  0
  4 21  4  0
  4 29  4  0
  5 15  4  0
  5 28  1  0
  6 16  4  0
  7 18  4  0
  7 26  4  0
  8 18  1  0
  8 19  4  0
  8 22  4  0
  9 12  4  0
  9 19  4  0
 10 12  4  0
 10 22  4  0
 11 20  4  0
 11 21  4  0
 12 23  1  0
 13 20  4  0
 13 29  4  0
 14 17  4  0
 14 28  4  0
 15 25  2  0
 16 27  4  0
 17 18  4  0
 20 27  1  0
 24 27  4  0
 26 28  4  0
M  END
$$$$

 Created by Python create_sdf_string function

 29 33  0  0  0  0  0  0  0  0999 V2000
    8.8270   -7.0288   18.4251 C   0  0  0  0  0  0  0  0  0  0  0  0
    9.1576   -4.6236   15.8860 O   0  0  0  0  0  0  0  0  0  0  0  0
    9.1509   -5.9108   17.7177 C   0  0  0  0  0  0  0  0  0  0  0  0
    3.6373   -9.5349   16.0582 N   0  0  0  0  0  0  0  0  0  0  0  0
    9.9275   -4.8001   18.0438 N   0  0  0  0  0  0  0  0  0  0  0  0
    8.5908   -5.7425   16.4412 C   0  0  0  0  0  0  0  0  0  0  0  0
   10.5993   -4.8981   21.6068 C   0  0  0  0  0  0  0  0  0  0  0  0
   10.4258   -3.0106   23.0998 C   0  0  0  0  0  0  0  0  0  0  0  0
   10.2148   -3.4364   25.4200 C   0  0  0  0  0  0  0  0  0  0  0  0
    9.7853   -1.1840   24.4927 C   0  0  0  0  0  0  0  0  0  0  0  0
    5.0276   -8.5227   17.5352 C   0  0  0  0  0  0  0  0  0  0  0  0
    9.8187   -2.0895   25.5800 C   0  0  0  0  0  0  0  0  0  0  0  0
    5.6473   -8.7216   15.3158 C   0  0  0  0  0  0  0  0  0  0  0  0
   10.7581   -3.1233   19.4720 N   0  0  0  0  0  0  0  0  0  0  0  0
    9.9571   -4.0573   16.8866 C   0  0  0  0  0  0  0  0  0  0  0  0
    7.6213   -6.5618   16.0087 C   0  0  0  0  0  0  0  0  0  0  0  0
   10.8583   -2.6527   20.7222 C   0  0  0  0  0  0  0  0  0  0  0  0
   10.6412   -3.5089   21.7936 C   0  0  0  0  0  0  0  0  0  0  0  0
   10.4972   -3.8968   24.1589 C   0  0  0  0  0  0  0  0  0  0  0  0
    5.9260   -8.2736   16.5517 C   0  0  0  0  0  0  0  0  0  0  0  0
    3.8816   -9.1166   17.2493 C   0  0  0  0  0  0  0  0  0  0  0  0
   10.1297   -1.6575   23.2324 C   0  0  0  0  0  0  0  0  0  0  0  0
    9.4684   -1.6929   26.7263 F   0  0  0  0  0  0  0  0  0  0  0  0
    7.7963   -7.7906   17.9837 C   0  0  0  0  0  0  0  0  0  0  0  0
   10.5884   -3.0725   16.7902 O   0  0  0  0  0  0  0  0  0  0  0  0
   10.4323   -5.3494   20.3516 C   0  0  0  0  0  0  0  0  0  0  0  0
    7.1156   -7.5454   16.8218 C   0  0  0  0  0  0  0  0  0  0  0  0
   10.3885   -4.4388   19.2773 C   0  0  0  0  0  0  0  0  0  0  0  0
    4.5160   -9.3822   15.0841 C   0  0  0  0  0  0  0  0  0  0  0  0
  1  3  4  0
  1 24  4  0
  2  6  4  0
  2 15  4  0
  3  5  4  0
  3  6  4  0
  4 21  4  0
  4 29  4  0
  5 15  4  0
  5 28  1  0
  6 16  4  0
  7 18  4  0
  7 26  4  0
  8 18  1  0
  8 19  4  0
  8 22  4  0
  9 12  4  0
  9 19  4  0
 10 12  4  0
 10 22  4  0
 11 20  4  0
 11 21  4  0
 12 23  1  0
 13 20  4  0
 13 29  4  0
 14 17  4  0
 14 28  4  0
 15 25  2  0
 16 27  4  0
 17 18  4  0
 20 27  1  0
 24 27  4  0
 26 28  4  0
M  END
$$$$

 Created by Python create_sdf_string function

 29 33  0  0  0  0  0  0  0  0999 V2000
    8.8270   -7.0288   18.4251 C   0  0  0  0  0  0  0  0  0  0  0  0
    9.1576   -4.6236   15.8860 O   0  0  0  0  0  0  0  0  0  0  0  0
    9.1509   -5.9108   17.7177 C   0  0  0  0  0  0  0  0  0  0  0  0
    3.6373   -9.5349   16.0582 N   0  0  0  0  0  0  0  0  0  0  0  0
    9.9275   -4.8001   18.0438 N   0  0  0  0  0  0  0  0  0  0  0  0
    8.5908   -5.7425   16.4412 C   0  0  0  0  0  0  0  0  0  0  0  0
   10.5993   -4.8981   21.6068 C   0  0  0  0  0  0  0  0  0  0  0  0
   10.4258   -3.0106   23.0998 C   0  0  0  0  0  0  0  0  0  0  0  0
   10.2148   -3.4364   25.4200 C   0  0  0  0  0  0  0  0  0  0  0  0
    9.7853   -1.1840   24.4927 C   0  0  0  0  0  0  0  0  0  0  0  0
    5.0276   -8.5227   17.5352 C   0  0  0  0  0  0  0  0  0  0  0  0
    9.8187   -2.0895   25.5800 C   0  0  0  0  0  0  0  0  0  0  0  0
    5.6473   -8.7216   15.3158 C   0  0  0  0  0  0  0  0  0  0  0  0
   10.7581   -3.1233   19.4720 N   0  0  0  0  0  0  0  0  0  0  0  0
    9.9571   -4.0573   16.8866 C   0  0  0  0  0  0  0  0  0  0  0  0
    7.6213   -6.5618   16.0087 C   0  0  0  0  0  0  0  0  0  0  0  0
   10.8583   -2.6527   20.7222 C   0  0  0  0  0  0  0  0  0  0  0  0
   10.6412   -3.5089   21.7936 C   0  0  0  0  0  0  0  0  0  0  0  0
   10.4972   -3.8968   24.1589 C   0  0  0  0  0  0  0  0  0  0  0  0
    5.9260   -8.2736   16.5517 C   0  0  0  0  0  0  0  0  0  0  0  0
    3.8816   -9.1166   17.2493 C   0  0  0  0  0  0  0  0  0  0  0  0
   10.1297   -1.6575   23.2324 C   0  0  0  0  0  0  0  0  0  0  0  0
    9.4684   -1.6929   26.7263 F   0  0  0  0  0  0  0  0  0  0  0  0
    7.7963   -7.7906   17.9837 C   0  0  0  0  0  0  0  0  0  0  0  0
   10.5884   -3.0725   16.7902 O   0  0  0  0  0  0  0  0  0  0  0  0
   10.4323   -5.3494   20.3516 C   0  0  0  0  0  0  0  0  0  0  0  0
    7.1156   -7.5454   16.8218 C   0  0  0  0  0  0  0  0  0  0  0  0
   10.3885   -4.4388   19.2773 C   0  0  0  0  0  0  0  0  0  0  0  0
    4.5160   -9.3822   15.0841 C   0  0  0  0  0  0  0  0  0  0  0  0
  1  3  4  0
  1 24  4  0
  2  6  4  0
  2 15  4  0
  3  5  4  0
  3  6  4  0
  4 21  4  0
  4 29  4  0
  5 15  4  0
  5 28  1  0
  6 16  4  0
  7 18  4  0
  7 26  4  0
  8 18  1  0
  8 19  4  0
  8 22  4  0
  9 12  4  0
  9 19  4  0
 10 12  4  0
 10 22  4  0
 11 20  4  0
 11 21  4  0
 12 23  1  0
 13 20  4  0
 13 29  4  0
 14 17  4  0
 14 28  4  0
 15 25  2  0
 16 27  4  0
 17 18  4  0
 20 27  1  0
 24 27  4  0
 26 28  4  0
M  END
$$$$

 Created by Python create_sdf_string function

 29 33  0  0  0  0  0  0  0  0999 V2000
    8.8270   -7.0288   18.4251 C   0  0  0  0  0  0  0  0  0  0  0  0
    9.1576   -4.6236   15.8860 O   0  0  0  0  0  0  0  0  0  0  0  0
    9.1509   -5.9108   17.7177 C   0  0  0  0  0  0  0  0  0  0  0  0
    3.6373   -9.5349   16.0582 N   0  0  0  0  0  0  0  0  0  0  0  0
    9.9275   -4.8001   18.0438 N   0  0  0  0  0  0  0  0  0  0  0  0
    8.5908   -5.7425   16.4412 C   0  0  0  0  0  0  0  0  0  0  0  0
   10.5993   -4.8981   21.6068 C   0  0  0  0  0  0  0  0  0  0  0  0
   10.4258   -3.0106   23.0998 C   0  0  0  0  0  0  0  0  0  0  0  0
   10.2148   -3.4364   25.4200 C   0  0  0  0  0  0  0  0  0  0  0  0
    9.7853   -1.1840   24.4927 C   0  0  0  0  0  0  0  0  0  0  0  0
    5.0276   -8.5227   17.5352 C   0  0  0  0  0  0  0  0  0  0  0  0
    9.8187   -2.0895   25.5800 C   0  0  0  0  0  0  0  0  0  0  0  0
    5.6473   -8.7216   15.3158 C   0  0  0  0  0  0  0  0  0  0  0  0
   10.7581   -3.1233   19.4720 N   0  0  0  0  0  0  0  0  0  0  0  0
    9.9571   -4.0573   16.8866 C   0  0  0  0  0  0  0  0  0  0  0  0
    7.6213   -6.5618   16.0087 C   0  0  0  0  0  0  0  0  0  0  0  0
   10.8583   -2.6527   20.7222 C   0  0  0  0  0  0  0  0  0  0  0  0
   10.6412   -3.5089   21.7936 C   0  0  0  0  0  0  0  0  0  0  0  0
   10.4972   -3.8968   24.1589 C   0  0  0  0  0  0  0  0  0  0  0  0
    5.9260   -8.2736   16.5517 C   0  0  0  0  0  0  0  0  0  0  0  0
    3.8816   -9.1166   17.2493 C   0  0  0  0  0  0  0  0  0  0  0  0
   10.1297   -1.6575   23.2324 C   0  0  0  0  0  0  0  0  0  0  0  0
    9.4684   -1.6929   26.7263 F   0  0  0  0  0  0  0  0  0  0  0  0
    7.7963   -7.7906   17.9837 C   0  0  0  0  0  0  0  0  0  0  0  0
   10.5884   -3.0725   16.7902 O   0  0  0  0  0  0  0  0  0  0  0  0
   10.4323   -5.3494   20.3516 C   0  0  0  0  0  0  0  0  0  0  0  0
    7.1156   -7.5454   16.8218 C   0  0  0  0  0  0  0  0  0  0  0  0
   10.3885   -4.4388   19.2773 C   0  0  0  0  0  0  0  0  0  0  0  0
    4.5160   -9.3822   15.0841 C   0  0  0  0  0  0  0  0  0  0  0  0
  1  3  4  0
  1 24  4  0
  2  6  4  0
  2 15  4  0
  3  5  4  0
  3  6  4  0
  4 21  4  0
  4 29  4  0
  5 15  4  0
  5 28  1  0
  6 16  4  0
  7 18  4  0
  7 26  4  0
  8 18  1  0
  8 19  4  0
  8 22  4  0
  9 12  4  0
  9 19  4  0
 10 12  4  0
 10 22  4  0
 11 20  4  0
 11 21  4  0
 12 23  1  0
 13 20  4  0
 13 29  4  0
 14 17  4  0
 14 28  4  0
 15 25  2  0
 16 27  4  0
 17 18  4  0
 20 27  1  0
 24 27  4  0
 26 28  4  0
M  END
$$$$

 Created by Python create_sdf_string function

 29 33  0  0  0  0  0  0  0  0999 V2000
    8.8270   -7.0288   18.4251 C   0  0  0  0  0  0  0  0  0  0  0  0
    9.1576   -4.6236   15.8860 O   0  0  0  0  0  0  0  0  0  0  0  0
    9.1509   -5.9108   17.7177 C   0  0  0  0  0  0  0  0  0  0  0  0
    3.6373   -9.5349   16.0582 N   0  0  0  0  0  0  0  0  0  0  0  0
    9.9275   -4.8001   18.0438 N   0  0  0  0  0  0  0  0  0  0  0  0
    8.5908   -5.7425   16.4412 C   0  0  0  0  0  0  0  0  0  0  0  0
   10.5993   -4.8981   21.6068 C   0  0  0  0  0  0  0  0  0  0  0  0
   10.4258   -3.0106   23.0998 C   0  0  0  0  0  0  0  0  0  0  0  0
   10.2148   -3.4364   25.4200 C   0  0  0  0  0  0  0  0  0  0  0  0
    9.7853   -1.1840   24.4927 C   0  0  0  0  0  0  0  0  0  0  0  0
    5.0276   -8.5227   17.5352 C   0  0  0  0  0  0  0  0  0  0  0  0
    9.8187   -2.0895   25.5800 C   0  0  0  0  0  0  0  0  0  0  0  0
    5.6473   -8.7216   15.3158 C   0  0  0  0  0  0  0  0  0  0  0  0
   10.7581   -3.1233   19.4720 N   0  0  0  0  0  0  0  0  0  0  0  0
    9.9571   -4.0573   16.8866 C   0  0  0  0  0  0  0  0  0  0  0  0
    7.6213   -6.5618   16.0087 C   0  0  0  0  0  0  0  0  0  0  0  0
   10.8583   -2.6527   20.7222 C   0  0  0  0  0  0  0  0  0  0  0  0
   10.6412   -3.5089   21.7936 C   0  0  0  0  0  0  0  0  0  0  0  0
   10.4972   -3.8968   24.1589 C   0  0  0  0  0  0  0  0  0  0  0  0
    5.9260   -8.2736   16.5517 C   0  0  0  0  0  0  0  0  0  0  0  0
    3.8816   -9.1166   17.2493 C   0  0  0  0  0  0  0  0  0  0  0  0
   10.1297   -1.6575   23.2324 C   0  0  0  0  0  0  0  0  0  0  0  0
    9.4684   -1.6929   26.7263 F   0  0  0  0  0  0  0  0  0  0  0  0
    7.7963   -7.7906   17.9837 C   0  0  0  0  0  0  0  0  0  0  0  0
   10.5884   -3.0725   16.7902 O   0  0  0  0  0  0  0  0  0  0  0  0
   10.4323   -5.3494   20.3516 C   0  0  0  0  0  0  0  0  0  0  0  0
    7.1156   -7.5454   16.8218 C   0  0  0  0  0  0  0  0  0  0  0  0
   10.3885   -4.4388   19.2773 C   0  0  0  0  0  0  0  0  0  0  0  0
    4.5160   -9.3822   15.0841 C   0  0  0  0  0  0  0  0  0  0  0  0
  1  3  4  0
  1 24  4  0
  2  6  4  0
  2 15  4  0
  3  5  4  0
  3  6  4  0
  4 21  4  0
  4 29  4  0
  5 15  4  0
  5 28  1  0
  6 16  4  0
  7 18  4  0
  7 26  4  0
  8 18  1  0
  8 19  4  0
  8 22  4  0
  9 12  4  0
  9 19  4  0
 10 12  4  0
 10 22  4  0
 11 20  4  0
 11 21  4  0
 12 23  1  0
 13 20  4  0
 13 29  4  0
 14 17  4  0
 14 28  4  0
 15 25  2  0
 16 27  4  0
 17 18  4  0
 20 27  1  0
 24 27  4  0
 26 28  4  0
M  END
$$$$

 Created by Python create_sdf_string function

 29 33  0  0  0  0  0  0  0  0999 V2000
    8.8270   -7.0288   18.4251 C   0  0  0  0  0  0  0  0  0  0  0  0
    9.1576   -4.6236   15.8860 O   0  0  0  0  0  0  0  0  0  0  0  0
    9.1509   -5.9108   17.7177 C   0  0  0  0  0  0  0  0  0  0  0  0
    3.6373   -9.5349   16.0582 N   0  0  0  0  0  0  0  0  0  0  0  0
    9.9275   -4.8001   18.0438 N   0  0  0  0  0  0  0  0  0  0  0  0
    8.5908   -5.7425   16.4412 C   0  0  0  0  0  0  0  0  0  0  0  0
   10.5993   -4.8981   21.6068 C   0  0  0  0  0  0  0  0  0  0  0  0
   10.4258   -3.0106   23.0998 C   0  0  0  0  0  0  0  0  0  0  0  0
   10.2148   -3.4364   25.4200 C   0  0  0  0  0  0  0  0  0  0  0  0
    9.7853   -1.1840   24.4927 C   0  0  0  0  0  0  0  0  0  0  0  0
    5.0276   -8.5227   17.5352 C   0  0  0  0  0  0  0  0  0  0  0  0
    9.8187   -2.0895   25.5800 C   0  0  0  0  0  0  0  0  0  0  0  0
    5.6473   -8.7216   15.3158 C   0  0  0  0  0  0  0  0  0  0  0  0
   10.7581   -3.1233   19.4720 N   0  0  0  0  0  0  0  0  0  0  0  0
    9.9571   -4.0573   16.8866 C   0  0  0  0  0  0  0  0  0  0  0  0
    7.6213   -6.5618   16.0087 C   0  0  0  0  0  0  0  0  0  0  0  0
   10.8583   -2.6527   20.7222 C   0  0  0  0  0  0  0  0  0  0  0  0
   10.6412   -3.5089   21.7936 C   0  0  0  0  0  0  0  0  0  0  0  0
   10.4972   -3.8968   24.1589 C   0  0  0  0  0  0  0  0  0  0  0  0
    5.9260   -8.2736   16.5517 C   0  0  0  0  0  0  0  0  0  0  0  0
    3.8816   -9.1166   17.2493 C   0  0  0  0  0  0  0  0  0  0  0  0
   10.1297   -1.6575   23.2324 C   0  0  0  0  0  0  0  0  0  0  0  0
    9.4684   -1.6929   26.7263 F   0  0  0  0  0  0  0  0  0  0  0  0
    7.7963   -7.7906   17.9837 C   0  0  0  0  0  0  0  0  0  0  0  0
   10.5884   -3.0725   16.7902 O   0  0  0  0  0  0  0  0  0  0  0  0
   10.4323   -5.3494   20.3516 C   0  0  0  0  0  0  0  0  0  0  0  0
    7.1156   -7.5454   16.8218 C   0  0  0  0  0  0  0  0  0  0  0  0
   10.3885   -4.4388   19.2773 C   0  0  0  0  0  0  0  0  0  0  0  0
    4.5160   -9.3822   15.0841 C   0  0  0  0  0  0  0  0  0  0  0  0
  1  3  4  0
  1 24  4  0
  2  6  4  0
  2 15  4  0
  3  5  4  0
  3  6  4  0
  4 21  4  0
  4 29  4  0
  5 15  4  0
  5 28  1  0
  6 16  4  0
  7 18  4  0
  7 26  4  0
  8 18  1  0
  8 19  4  0
  8 22  4  0
  9 12  4  0
  9 19  4  0
 10 12  4  0
 10 22  4  0
 11 20  4  0
 11 21  4  0
 12 23  1  0
 13 20  4  0
 13 29  4  0
 14 17  4  0
 14 28  4  0
 15 25  2  0
 16 27  4  0
 17 18  4  0
 20 27  1  0
 24 27  4  0
 26 28  4  0
M  END
$$$$

 Created by Python create_sdf_string function

 29 33  0  0  0  0  0  0  0  0999 V2000
    8.8270   -7.0288   18.4251 C   0  0  0  0  0  0  0  0  0  0  0  0
    9.1576   -4.6236   15.8860 O   0  0  0  0  0  0  0  0  0  0  0  0
    9.1509   -5.9108   17.7177 C   0  0  0  0  0  0  0  0  0  0  0  0
    3.6373   -9.5349   16.0582 N   0  0  0  0  0  0  0  0  0  0  0  0
    9.9275   -4.8001   18.0438 N   0  0  0  0  0  0  0  0  0  0  0  0
    8.5908   -5.7425   16.4412 C   0  0  0  0  0  0  0  0  0  0  0  0
   10.5993   -4.8981   21.6068 C   0  0  0  0  0  0  0  0  0  0  0  0
   10.4258   -3.0106   23.0998 C   0  0  0  0  0  0  0  0  0  0  0  0
   10.2148   -3.4364   25.4200 C   0  0  0  0  0  0  0  0  0  0  0  0
    9.7853   -1.1840   24.4927 C   0  0  0  0  0  0  0  0  0  0  0  0
    5.0276   -8.5227   17.5352 C   0  0  0  0  0  0  0  0  0  0  0  0
    9.8187   -2.0895   25.5800 C   0  0  0  0  0  0  0  0  0  0  0  0
    5.6473   -8.7216   15.3158 C   0  0  0  0  0  0  0  0  0  0  0  0
   10.7581   -3.1233   19.4720 N   0  0  0  0  0  0  0  0  0  0  0  0
    9.9571   -4.0573   16.8866 C   0  0  0  0  0  0  0  0  0  0  0  0
    7.6213   -6.5618   16.0087 C   0  0  0  0  0  0  0  0  0  0  0  0
   10.8583   -2.6527   20.7222 C   0  0  0  0  0  0  0  0  0  0  0  0
   10.6412   -3.5089   21.7936 C   0  0  0  0  0  0  0  0  0  0  0  0
   10.4972   -3.8968   24.1589 C   0  0  0  0  0  0  0  0  0  0  0  0
    5.9260   -8.2736   16.5517 C   0  0  0  0  0  0  0  0  0  0  0  0
    3.8816   -9.1166   17.2493 C   0  0  0  0  0  0  0  0  0  0  0  0
   10.1297   -1.6575   23.2324 C   0  0  0  0  0  0  0  0  0  0  0  0
    9.4684   -1.6929   26.7263 F   0  0  0  0  0  0  0  0  0  0  0  0
    7.7963   -7.7906   17.9837 C   0  0  0  0  0  0  0  0  0  0  0  0
   10.5884   -3.0725   16.7902 O   0  0  0  0  0  0  0  0  0  0  0  0
   10.4323   -5.3494   20.3516 C   0  0  0  0  0  0  0  0  0  0  0  0
    7.1156   -7.5454   16.8218 C   0  0  0  0  0  0  0  0  0  0  0  0
   10.3885   -4.4388   19.2773 C   0  0  0  0  0  0  0  0  0  0  0  0
    4.5160   -9.3822   15.0841 C   0  0  0  0  0  0  0  0  0  0  0  0
  1  3  4  0
  1 24  4  0
  2  6  4  0
  2 15  4  0
  3  5  4  0
  3  6  4  0
  4 21  4  0
  4 29  4  0
  5 15  4  0
  5 28  1  0
  6 16  4  0
  7 18  4  0
  7 26  4  0
  8 18  1  0
  8 19  4  0
  8 22  4  0
  9 12  4  0
  9 19  4  0
 10 12  4  0
 10 22  4  0
 11 20  4  0
 11 21  4  0
 12 23  1  0
 13 20  4  0
 13 29  4  0
 14 17  4  0
 14 28  4  0
 15 25  2  0
 16 27  4  0
 17 18  4  0
 20 27  1  0
 24 27  4  0
 26 28  4  0
M  END
$$$$

 Created by Python create_sdf_string function

 29 33  0  0  0  0  0  0  0  0999 V2000
    8.8270   -7.0288   18.4251 C   0  0  0  0  0  0  0  0  0  0  0  0
    9.1576   -4.6236   15.8860 O   0  0  0  0  0  0  0  0  0  0  0  0
    9.1509   -5.9108   17.7177 C   0  0  0  0  0  0  0  0  0  0  0  0
    3.6373   -9.5349   16.0582 N   0  0  0  0  0  0  0  0  0  0  0  0
    9.9275   -4.8001   18.0438 N   0  0  0  0  0  0  0  0  0  0  0  0
    8.5908   -5.7425   16.4412 C   0  0  0  0  0  0  0  0  0  0  0  0
   10.5993   -4.8981   21.6068 C   0  0  0  0  0  0  0  0  0  0  0  0
   10.4258   -3.0106   23.0998 C   0  0  0  0  0  0  0  0  0  0  0  0
   10.2148   -3.4364   25.4200 C   0  0  0  0  0  0  0  0  0  0  0  0
    9.7853   -1.1840   24.4927 C   0  0  0  0  0  0  0  0  0  0  0  0
    5.0276   -8.5227   17.5352 C   0  0  0  0  0  0  0  0  0  0  0  0
    9.8187   -2.0895   25.5800 C   0  0  0  0  0  0  0  0  0  0  0  0
    5.6473   -8.7216   15.3158 C   0  0  0  0  0  0  0  0  0  0  0  0
   10.7581   -3.1233   19.4720 N   0  0  0  0  0  0  0  0  0  0  0  0
    9.9571   -4.0573   16.8866 C   0  0  0  0  0  0  0  0  0  0  0  0
    7.6213   -6.5618   16.0087 C   0  0  0  0  0  0  0  0  0  0  0  0
   10.8583   -2.6527   20.7222 C   0  0  0  0  0  0  0  0  0  0  0  0
   10.6412   -3.5089   21.7936 C   0  0  0  0  0  0  0  0  0  0  0  0
   10.4972   -3.8968   24.1589 C   0  0  0  0  0  0  0  0  0  0  0  0
    5.9260   -8.2736   16.5517 C   0  0  0  0  0  0  0  0  0  0  0  0
    3.8816   -9.1166   17.2493 C   0  0  0  0  0  0  0  0  0  0  0  0
   10.1297   -1.6575   23.2324 C   0  0  0  0  0  0  0  0  0  0  0  0
    9.4684   -1.6929   26.7263 F   0  0  0  0  0  0  0  0  0  0  0  0
    7.7963   -7.7906   17.9837 C   0  0  0  0  0  0  0  0  0  0  0  0
   10.5884   -3.0725   16.7902 O   0  0  0  0  0  0  0  0  0  0  0  0
   10.4323   -5.3494   20.3516 C   0  0  0  0  0  0  0  0  0  0  0  0
    7.1156   -7.5454   16.8218 C   0  0  0  0  0  0  0  0  0  0  0  0
   10.3885   -4.4388   19.2773 C   0  0  0  0  0  0  0  0  0  0  0  0
    4.5160   -9.3822   15.0841 C   0  0  0  0  0  0  0  0  0  0  0  0
  1  3  4  0
  1 24  4  0
  2  6  4  0
  2 15  4  0
  3  5  4  0
  3  6  4  0
  4 21  4  0
  4 29  4  0
  5 15  4  0
  5 28  1  0
  6 16  4  0
  7 18  4  0
  7 26  4  0
  8 18  1  0
  8 19  4  0
  8 22  4  0
  9 12  4  0
  9 19  4  0
 10 12  4  0
 10 22  4  0
 11 20  4  0
 11 21  4  0
 12 23  1  0
 13 20  4  0
 13 29  4  0
 14 17  4  0
 14 28  4  0
 15 25  2  0
 16 27  4  0
 17 18  4  0
 20 27  1  0
 24 27  4  0
 26 28  4  0
M  END
$$$$

 Created by Python create_sdf_string function

 29 33  0  0  0  0  0  0  0  0999 V2000
    8.8270   -7.0288   18.4251 C   0  0  0  0  0  0  0  0  0  0  0  0
    9.1576   -4.6236   15.8860 O   0  0  0  0  0  0  0  0  0  0  0  0
    9.1509   -5.9108   17.7177 C   0  0  0  0  0  0  0  0  0  0  0  0
    3.6373   -9.5349   16.0582 N   0  0  0  0  0  0  0  0  0  0  0  0
    9.9275   -4.8001   18.0438 N   0  0  0  0  0  0  0  0  0  0  0  0
    8.5908   -5.7425   16.4412 C   0  0  0  0  0  0  0  0  0  0  0  0
   10.5993   -4.8981   21.6068 C   0  0  0  0  0  0  0  0  0  0  0  0
   10.4258   -3.0106   23.0998 C   0  0  0  0  0  0  0  0  0  0  0  0
   10.2148   -3.4364   25.4200 C   0  0  0  0  0  0  0  0  0  0  0  0
    9.7853   -1.1840   24.4927 C   0  0  0  0  0  0  0  0  0  0  0  0
    5.0276   -8.5227   17.5352 C   0  0  0  0  0  0  0  0  0  0  0  0
    9.8187   -2.0895   25.5800 C   0  0  0  0  0  0  0  0  0  0  0  0
    5.6473   -8.7216   15.3158 C   0  0  0  0  0  0  0  0  0  0  0  0
   10.7581   -3.1233   19.4720 N   0  0  0  0  0  0  0  0  0  0  0  0
    9.9571   -4.0573   16.8866 C   0  0  0  0  0  0  0  0  0  0  0  0
    7.6213   -6.5618   16.0087 C   0  0  0  0  0  0  0  0  0  0  0  0
   10.8583   -2.6527   20.7222 C   0  0  0  0  0  0  0  0  0  0  0  0
   10.6412   -3.5089   21.7936 C   0  0  0  0  0  0  0  0  0  0  0  0
   10.4972   -3.8968   24.1589 C   0  0  0  0  0  0  0  0  0  0  0  0
    5.9260   -8.2736   16.5517 C   0  0  0  0  0  0  0  0  0  0  0  0
    3.8816   -9.1166   17.2493 C   0  0  0  0  0  0  0  0  0  0  0  0
   10.1297   -1.6575   23.2324 C   0  0  0  0  0  0  0  0  0  0  0  0
    9.4684   -1.6929   26.7263 F   0  0  0  0  0  0  0  0  0  0  0  0
    7.7963   -7.7906   17.9837 C   0  0  0  0  0  0  0  0  0  0  0  0
   10.5884   -3.0725   16.7902 O   0  0  0  0  0  0  0  0  0  0  0  0
   10.4323   -5.3494   20.3516 C   0  0  0  0  0  0  0  0  0  0  0  0
    7.1156   -7.5454   16.8218 C   0  0  0  0  0  0  0  0  0  0  0  0
   10.3885   -4.4388   19.2773 C   0  0  0  0  0  0  0  0  0  0  0  0
    4.5160   -9.3822   15.0841 C   0  0  0  0  0  0  0  0  0  0  0  0
  1  3  4  0
  1 24  4  0
  2  6  4  0
  2 15  4  0
  3  5  4  0
  3  6  4  0
  4 21  4  0
  4 29  4  0
  5 15  4  0
  5 28  1  0
  6 16  4  0
  7 18  4  0
  7 26  4  0
  8 18  1  0
  8 19  4  0
  8 22  4  0
  9 12  4  0
  9 19  4  0
 10 12  4  0
 10 22  4  0
 11 20  4  0
 11 21  4  0
 12 23  1  0
 13 20  4  0
 13 29  4  0
 14 17  4  0
 14 28  4  0
 15 25  2  0
 16 27  4  0
 17 18  4  0
 20 27  1  0
 24 27  4  0
 26 28  4  0
M  END
$$$$

 Created by Python create_sdf_string function

 29 33  0  0  0  0  0  0  0  0999 V2000
    8.8270   -7.0288   18.4251 C   0  0  0  0  0  0  0  0  0  0  0  0
    9.1576   -4.6236   15.8860 O   0  0  0  0  0  0  0  0  0  0  0  0
    9.1509   -5.9108   17.7177 C   0  0  0  0  0  0  0  0  0  0  0  0
    3.6373   -9.5349   16.0582 N   0  0  0  0  0  0  0  0  0  0  0  0
    9.9275   -4.8001   18.0438 N   0  0  0  0  0  0  0  0  0  0  0  0
    8.5908   -5.7425   16.4412 C   0  0  0  0  0  0  0  0  0  0  0  0
   10.5993   -4.8981   21.6068 C   0  0  0  0  0  0  0  0  0  0  0  0
   10.4258   -3.0106   23.0998 C   0  0  0  0  0  0  0  0  0  0  0  0
   10.2148   -3.4364   25.4200 C   0  0  0  0  0  0  0  0  0  0  0  0
    9.7853   -1.1840   24.4927 C   0  0  0  0  0  0  0  0  0  0  0  0
    5.0276   -8.5227   17.5352 C   0  0  0  0  0  0  0  0  0  0  0  0
    9.8187   -2.0895   25.5800 C   0  0  0  0  0  0  0  0  0  0  0  0
    5.6473   -8.7216   15.3158 C   0  0  0  0  0  0  0  0  0  0  0  0
   10.7581   -3.1233   19.4720 N   0  0  0  0  0  0  0  0  0  0  0  0
    9.9571   -4.0573   16.8866 C   0  0  0  0  0  0  0  0  0  0  0  0
    7.6213   -6.5618   16.0087 C   0  0  0  0  0  0  0  0  0  0  0  0
   10.8583   -2.6527   20.7222 C   0  0  0  0  0  0  0  0  0  0  0  0
   10.6412   -3.5089   21.7936 C   0  0  0  0  0  0  0  0  0  0  0  0
   10.4972   -3.8968   24.1589 C   0  0  0  0  0  0  0  0  0  0  0  0
    5.9260   -8.2736   16.5517 C   0  0  0  0  0  0  0  0  0  0  0  0
    3.8816   -9.1166   17.2493 C   0  0  0  0  0  0  0  0  0  0  0  0
   10.1297   -1.6575   23.2324 C   0  0  0  0  0  0  0  0  0  0  0  0
    9.4684   -1.6929   26.7263 F   0  0  0  0  0  0  0  0  0  0  0  0
    7.7963   -7.7906   17.9837 C   0  0  0  0  0  0  0  0  0  0  0  0
   10.5884   -3.0725   16.7902 O   0  0  0  0  0  0  0  0  0  0  0  0
   10.4323   -5.3494   20.3516 C   0  0  0  0  0  0  0  0  0  0  0  0
    7.1156   -7.5454   16.8218 C   0  0  0  0  0  0  0  0  0  0  0  0
   10.3885   -4.4388   19.2773 C   0  0  0  0  0  0  0  0  0  0  0  0
    4.5160   -9.3822   15.0841 C   0  0  0  0  0  0  0  0  0  0  0  0
  1  3  4  0
  1 24  4  0
  2  6  4  0
  2 15  4  0
  3  5  4  0
  3  6  4  0
  4 21  4  0
  4 29  4  0
  5 15  4  0
  5 28  1  0
  6 16  4  0
  7 18  4  0
  7 26  4  0
  8 18  1  0
  8 19  4  0
  8 22  4  0
  9 12  4  0
  9 19  4  0
 10 12  4  0
 10 22  4  0
 11 20  4  0
 11 21  4  0
 12 23  1  0
 13 20  4  0
 13 29  4  0
 14 17  4  0
 14 28  4  0
 15 25  2  0
 16 27  4  0
 17 18  4  0
 20 27  1  0
 24 27  4  0
 26 28  4  0
M  END
$$$$

 Created by Python create_sdf_string function

 29 33  0  0  0  0  0  0  0  0999 V2000
    8.8270   -7.0288   18.4251 C   0  0  0  0  0  0  0  0  0  0  0  0
    9.1576   -4.6236   15.8860 O   0  0  0  0  0  0  0  0  0  0  0  0
    9.1509   -5.9108   17.7177 C   0  0  0  0  0  0  0  0  0  0  0  0
    3.6373   -9.5349   16.0582 N   0  0  0  0  0  0  0  0  0  0  0  0
    9.9275   -4.8001   18.0438 N   0  0  0  0  0  0  0  0  0  0  0  0
    8.5908   -5.7425   16.4412 C   0  0  0  0  0  0  0  0  0  0  0  0
   10.5993   -4.8981   21.6068 C   0  0  0  0  0  0  0  0  0  0  0  0
   10.4258   -3.0106   23.0998 C   0  0  0  0  0  0  0  0  0  0  0  0
   10.2148   -3.4364   25.4200 C   0  0  0  0  0  0  0  0  0  0  0  0
    9.7853   -1.1840   24.4927 C   0  0  0  0  0  0  0  0  0  0  0  0
    5.0276   -8.5227   17.5352 C   0  0  0  0  0  0  0  0  0  0  0  0
    9.8187   -2.0895   25.5800 C   0  0  0  0  0  0  0  0  0  0  0  0
    5.6473   -8.7216   15.3158 C   0  0  0  0  0  0  0  0  0  0  0  0
   10.7581   -3.1233   19.4720 N   0  0  0  0  0  0  0  0  0  0  0  0
    9.9571   -4.0573   16.8866 C   0  0  0  0  0  0  0  0  0  0  0  0
    7.6213   -6.5618   16.0087 C   0  0  0  0  0  0  0  0  0  0  0  0
   10.8583   -2.6527   20.7222 C   0  0  0  0  0  0  0  0  0  0  0  0
   10.6412   -3.5089   21.7936 C   0  0  0  0  0  0  0  0  0  0  0  0
   10.4972   -3.8968   24.1589 C   0  0  0  0  0  0  0  0  0  0  0  0
    5.9260   -8.2736   16.5517 C   0  0  0  0  0  0  0  0  0  0  0  0
    3.8816   -9.1166   17.2493 C   0  0  0  0  0  0  0  0  0  0  0  0
   10.1297   -1.6575   23.2324 C   0  0  0  0  0  0  0  0  0  0  0  0
    9.4684   -1.6929   26.7263 F   0  0  0  0  0  0  0  0  0  0  0  0
    7.7963   -7.7906   17.9837 C   0  0  0  0  0  0  0  0  0  0  0  0
   10.5884   -3.0725   16.7902 O   0  0  0  0  0  0  0  0  0  0  0  0
   10.4323   -5.3494   20.3516 C   0  0  0  0  0  0  0  0  0  0  0  0
    7.1156   -7.5454   16.8218 C   0  0  0  0  0  0  0  0  0  0  0  0
   10.3885   -4.4388   19.2773 C   0  0  0  0  0  0  0  0  0  0  0  0
    4.5160   -9.3822   15.0841 C   0  0  0  0  0  0  0  0  0  0  0  0
  1  3  4  0
  1 24  4  0
  2  6  4  0
  2 15  4  0
  3  5  4  0
  3  6  4  0
  4 21  4  0
  4 29  4  0
  5 15  4  0
  5 28  1  0
  6 16  4  0
  7 18  4  0
  7 26  4  0
  8 18  1  0
  8 19  4  0
  8 22  4  0
  9 12  4  0
  9 19  4  0
 10 12  4  0
 10 22  4  0
 11 20  4  0
 11 21  4  0
 12 23  1  0
 13 20  4  0
 13 29  4  0
 14 17  4  0
 14 28  4  0
 15 25  2  0
 16 27  4  0
 17 18  4  0
 20 27  1  0
 24 27  4  0
 26 28  4  0
M  END
$$$$

 Created by Python create_sdf_string function

 29 33  0  0  0  0  0  0  0  0999 V2000
    8.8270   -7.0288   18.4251 C   0  0  0  0  0  0  0  0  0  0  0  0
    9.1576   -4.6236   15.8860 O   0  0  0  0  0  0  0  0  0  0  0  0
    9.1509   -5.9108   17.7177 C   0  0  0  0  0  0  0  0  0  0  0  0
    3.6373   -9.5349   16.0582 N   0  0  0  0  0  0  0  0  0  0  0  0
    9.9275   -4.8001   18.0438 N   0  0  0  0  0  0  0  0  0  0  0  0
    8.5908   -5.7425   16.4412 C   0  0  0  0  0  0  0  0  0  0  0  0
   10.5993   -4.8981   21.6068 C   0  0  0  0  0  0  0  0  0  0  0  0
   10.4258   -3.0106   23.0998 C   0  0  0  0  0  0  0  0  0  0  0  0
   10.2148   -3.4364   25.4200 C   0  0  0  0  0  0  0  0  0  0  0  0
    9.7853   -1.1840   24.4927 C   0  0  0  0  0  0  0  0  0  0  0  0
    5.0276   -8.5227   17.5352 C   0  0  0  0  0  0  0  0  0  0  0  0
    9.8187   -2.0895   25.5800 C   0  0  0  0  0  0  0  0  0  0  0  0
    5.6473   -8.7216   15.3158 C   0  0  0  0  0  0  0  0  0  0  0  0
   10.7581   -3.1233   19.4720 N   0  0  0  0  0  0  0  0  0  0  0  0
    9.9571   -4.0573   16.8866 C   0  0  0  0  0  0  0  0  0  0  0  0
    7.6213   -6.5618   16.0087 C   0  0  0  0  0  0  0  0  0  0  0  0
   10.8583   -2.6527   20.7222 C   0  0  0  0  0  0  0  0  0  0  0  0
   10.6412   -3.5089   21.7936 C   0  0  0  0  0  0  0  0  0  0  0  0
   10.4972   -3.8968   24.1589 C   0  0  0  0  0  0  0  0  0  0  0  0
    5.9260   -8.2736   16.5517 C   0  0  0  0  0  0  0  0  0  0  0  0
    3.8816   -9.1166   17.2493 C   0  0  0  0  0  0  0  0  0  0  0  0
   10.1297   -1.6575   23.2324 C   0  0  0  0  0  0  0  0  0  0  0  0
    9.4684   -1.6929   26.7263 F   0  0  0  0  0  0  0  0  0  0  0  0
    7.7963   -7.7906   17.9837 C   0  0  0  0  0  0  0  0  0  0  0  0
   10.5884   -3.0725   16.7902 O   0  0  0  0  0  0  0  0  0  0  0  0
   10.4323   -5.3494   20.3516 C   0  0  0  0  0  0  0  0  0  0  0  0
    7.1156   -7.5454   16.8218 C   0  0  0  0  0  0  0  0  0  0  0  0
   10.3885   -4.4388   19.2773 C   0  0  0  0  0  0  0  0  0  0  0  0
    4.5160   -9.3822   15.0841 C   0  0  0  0  0  0  0  0  0  0  0  0
  1  3  4  0
  1 24  4  0
  2  6  4  0
  2 15  4  0
  3  5  4  0
  3  6  4  0
  4 21  4  0
  4 29  4  0
  5 15  4  0
  5 28  1  0
  6 16  4  0
  7 18  4  0
  7 26  4  0
  8 18  1  0
  8 19  4  0
  8 22  4  0
  9 12  4  0
  9 19  4  0
 10 12  4  0
 10 22  4  0
 11 20  4  0
 11 21  4  0
 12 23  1  0
 13 20  4  0
 13 29  4  0
 14 17  4  0
 14 28  4  0
 15 25  2  0
 16 27  4  0
 17 18  4  0
 20 27  1  0
 24 27  4  0
 26 28  4  0
M  END
$$$$

 Created by Python create_sdf_string function

 29 33  0  0  0  0  0  0  0  0999 V2000
    8.8270   -7.0288   18.4251 C   0  0  0  0  0  0  0  0  0  0  0  0
    9.1576   -4.6236   15.8860 O   0  0  0  0  0  0  0  0  0  0  0  0
    9.1509   -5.9108   17.7177 C   0  0  0  0  0  0  0  0  0  0  0  0
    3.6373   -9.5349   16.0582 N   0  0  0  0  0  0  0  0  0  0  0  0
    9.9275   -4.8001   18.0438 N   0  0  0  0  0  0  0  0  0  0  0  0
    8.5908   -5.7425   16.4412 C   0  0  0  0  0  0  0  0  0  0  0  0
   10.5993   -4.8981   21.6068 C   0  0  0  0  0  0  0  0  0  0  0  0
   10.4258   -3.0106   23.0998 C   0  0  0  0  0  0  0  0  0  0  0  0
   10.2148   -3.4364   25.4200 C   0  0  0  0  0  0  0  0  0  0  0  0
    9.7853   -1.1840   24.4927 C   0  0  0  0  0  0  0  0  0  0  0  0
    5.0276   -8.5227   17.5352 C   0  0  0  0  0  0  0  0  0  0  0  0
    9.8187   -2.0895   25.5800 C   0  0  0  0  0  0  0  0  0  0  0  0
    5.6473   -8.7216   15.3158 C   0  0  0  0  0  0  0  0  0  0  0  0
   10.7581   -3.1233   19.4720 N   0  0  0  0  0  0  0  0  0  0  0  0
    9.9571   -4.0573   16.8866 C   0  0  0  0  0  0  0  0  0  0  0  0
    7.6213   -6.5618   16.0087 C   0  0  0  0  0  0  0  0  0  0  0  0
   10.8583   -2.6527   20.7222 C   0  0  0  0  0  0  0  0  0  0  0  0
   10.6412   -3.5089   21.7936 C   0  0  0  0  0  0  0  0  0  0  0  0
   10.4972   -3.8968   24.1589 C   0  0  0  0  0  0  0  0  0  0  0  0
    5.9260   -8.2736   16.5517 C   0  0  0  0  0  0  0  0  0  0  0  0
    3.8816   -9.1166   17.2493 C   0  0  0  0  0  0  0  0  0  0  0  0
   10.1297   -1.6575   23.2324 C   0  0  0  0  0  0  0  0  0  0  0  0
    9.4684   -1.6929   26.7263 F   0  0  0  0  0  0  0  0  0  0  0  0
    7.7963   -7.7906   17.9837 C   0  0  0  0  0  0  0  0  0  0  0  0
   10.5884   -3.0725   16.7902 O   0  0  0  0  0  0  0  0  0  0  0  0
   10.4323   -5.3494   20.3516 C   0  0  0  0  0  0  0  0  0  0  0  0
    7.1156   -7.5454   16.8218 C   0  0  0  0  0  0  0  0  0  0  0  0
   10.3885   -4.4388   19.2773 C   0  0  0  0  0  0  0  0  0  0  0  0
    4.5160   -9.3822   15.0841 C   0  0  0  0  0  0  0  0  0  0  0  0
  1  3  4  0
  1 24  4  0
  2  6  4  0
  2 15  4  0
  3  5  4  0
  3  6  4  0
  4 21  4  0
  4 29  4  0
  5 15  4  0
  5 28  1  0
  6 16  4  0
  7 18  4  0
  7 26  4  0
  8 18  1  0
  8 19  4  0
  8 22  4  0
  9 12  4  0
  9 19  4  0
 10 12  4  0
 10 22  4  0
 11 20  4  0
 11 21  4  0
 12 23  1  0
 13 20  4  0
 13 29  4  0
 14 17  4  0
 14 28  4  0
 15 25  2  0
 16 27  4  0
 17 18  4  0
 20 27  1  0
 24 27  4  0
 26 28  4  0
M  END
$$$$

 Created by Python create_sdf_string function

 29 33  0  0  0  0  0  0  0  0999 V2000
    8.8270   -7.0288   18.4251 C   0  0  0  0  0  0  0  0  0  0  0  0
    9.1576   -4.6236   15.8860 O   0  0  0  0  0  0  0  0  0  0  0  0
    9.1509   -5.9108   17.7177 C   0  0  0  0  0  0  0  0  0  0  0  0
    3.6373   -9.5349   16.0582 N   0  0  0  0  0  0  0  0  0  0  0  0
    9.9275   -4.8001   18.0438 N   0  0  0  0  0  0  0  0  0  0  0  0
    8.5908   -5.7425   16.4412 C   0  0  0  0  0  0  0  0  0  0  0  0
   10.5993   -4.8981   21.6068 C   0  0  0  0  0  0  0  0  0  0  0  0
   10.4258   -3.0106   23.0998 C   0  0  0  0  0  0  0  0  0  0  0  0
   10.2148   -3.4364   25.4200 C   0  0  0  0  0  0  0  0  0  0  0  0
    9.7853   -1.1840   24.4927 C   0  0  0  0  0  0  0  0  0  0  0  0
    5.0276   -8.5227   17.5352 C   0  0  0  0  0  0  0  0  0  0  0  0
    9.8187   -2.0895   25.5800 C   0  0  0  0  0  0  0  0  0  0  0  0
    5.6473   -8.7216   15.3158 C   0  0  0  0  0  0  0  0  0  0  0  0
   10.7581   -3.1233   19.4720 N   0  0  0  0  0  0  0  0  0  0  0  0
    9.9571   -4.0573   16.8866 C   0  0  0  0  0  0  0  0  0  0  0  0
    7.6213   -6.5618   16.0087 C   0  0  0  0  0  0  0  0  0  0  0  0
   10.8583   -2.6527   20.7222 C   0  0  0  0  0  0  0  0  0  0  0  0
   10.6412   -3.5089   21.7936 C   0  0  0  0  0  0  0  0  0  0  0  0
   10.4972   -3.8968   24.1589 C   0  0  0  0  0  0  0  0  0  0  0  0
    5.9260   -8.2736   16.5517 C   0  0  0  0  0  0  0  0  0  0  0  0
    3.8816   -9.1166   17.2493 C   0  0  0  0  0  0  0  0  0  0  0  0
   10.1297   -1.6575   23.2324 C   0  0  0  0  0  0  0  0  0  0  0  0
    9.4684   -1.6929   26.7263 F   0  0  0  0  0  0  0  0  0  0  0  0
    7.7963   -7.7906   17.9837 C   0  0  0  0  0  0  0  0  0  0  0  0
   10.5884   -3.0725   16.7902 O   0  0  0  0  0  0  0  0  0  0  0  0
   10.4323   -5.3494   20.3516 C   0  0  0  0  0  0  0  0  0  0  0  0
    7.1156   -7.5454   16.8218 C   0  0  0  0  0  0  0  0  0  0  0  0
   10.3885   -4.4388   19.2773 C   0  0  0  0  0  0  0  0  0  0  0  0
    4.5160   -9.3822   15.0841 C   0  0  0  0  0  0  0  0  0  0  0  0
  1  3  4  0
  1 24  4  0
  2  6  4  0
  2 15  4  0
  3  5  4  0
  3  6  4  0
  4 21  4  0
  4 29  4  0
  5 15  4  0
  5 28  1  0
  6 16  4  0
  7 18  4  0
  7 26  4  0
  8 18  1  0
  8 19  4  0
  8 22  4  0
  9 12  4  0
  9 19  4  0
 10 12  4  0
 10 22  4  0
 11 20  4  0
 11 21  4  0
 12 23  1  0
 13 20  4  0
 13 29  4  0
 14 17  4  0
 14 28  4  0
 15 25  2  0
 16 27  4  0
 17 18  4  0
 20 27  1  0
 24 27  4  0
 26 28  4  0
M  END
$$$$

 Created by Python create_sdf_string function

 29 33  0  0  0  0  0  0  0  0999 V2000
    8.8270   -7.0288   18.4251 C   0  0  0  0  0  0  0  0  0  0  0  0
    9.1576   -4.6236   15.8860 O   0  0  0  0  0  0  0  0  0  0  0  0
    9.1509   -5.9108   17.7177 C   0  0  0  0  0  0  0  0  0  0  0  0
    3.6373   -9.5349   16.0582 N   0  0  0  0  0  0  0  0  0  0  0  0
    9.9275   -4.8001   18.0438 N   0  0  0  0  0  0  0  0  0  0  0  0
    8.5908   -5.7425   16.4412 C   0  0  0  0  0  0  0  0  0  0  0  0
   10.5993   -4.8981   21.6068 C   0  0  0  0  0  0  0  0  0  0  0  0
   10.4258   -3.0106   23.0998 C   0  0  0  0  0  0  0  0  0  0  0  0
   10.2148   -3.4364   25.4200 C   0  0  0  0  0  0  0  0  0  0  0  0
    9.7853   -1.1840   24.4927 C   0  0  0  0  0  0  0  0  0  0  0  0
    5.0276   -8.5227   17.5352 C   0  0  0  0  0  0  0  0  0  0  0  0
    9.8187   -2.0895   25.5800 C   0  0  0  0  0  0  0  0  0  0  0  0
    5.6473   -8.7216   15.3158 C   0  0  0  0  0  0  0  0  0  0  0  0
   10.7581   -3.1233   19.4720 N   0  0  0  0  0  0  0  0  0  0  0  0
    9.9571   -4.0573   16.8866 C   0  0  0  0  0  0  0  0  0  0  0  0
    7.6213   -6.5618   16.0087 C   0  0  0  0  0  0  0  0  0  0  0  0
   10.8583   -2.6527   20.7222 C   0  0  0  0  0  0  0  0  0  0  0  0
   10.6412   -3.5089   21.7936 C   0  0  0  0  0  0  0  0  0  0  0  0
   10.4972   -3.8968   24.1589 C   0  0  0  0  0  0  0  0  0  0  0  0
    5.9260   -8.2736   16.5517 C   0  0  0  0  0  0  0  0  0  0  0  0
    3.8816   -9.1166   17.2493 C   0  0  0  0  0  0  0  0  0  0  0  0
   10.1297   -1.6575   23.2324 C   0  0  0  0  0  0  0  0  0  0  0  0
    9.4684   -1.6929   26.7263 F   0  0  0  0  0  0  0  0  0  0  0  0
    7.7963   -7.7906   17.9837 C   0  0  0  0  0  0  0  0  0  0  0  0
   10.5884   -3.0725   16.7902 O   0  0  0  0  0  0  0  0  0  0  0  0
   10.4323   -5.3494   20.3516 C   0  0  0  0  0  0  0  0  0  0  0  0
    7.1156   -7.5454   16.8218 C   0  0  0  0  0  0  0  0  0  0  0  0
   10.3885   -4.4388   19.2773 C   0  0  0  0  0  0  0  0  0  0  0  0
    4.5160   -9.3822   15.0841 C   0  0  0  0  0  0  0  0  0  0  0  0
  1  3  4  0
  1 24  4  0
  2  6  4  0
  2 15  4  0
  3  5  4  0
  3  6  4  0
  4 21  4  0
  4 29  4  0
  5 15  4  0
  5 28  1  0
  6 16  4  0
  7 18  4  0
  7 26  4  0
  8 18  1  0
  8 19  4  0
  8 22  4  0
  9 12  4  0
  9 19  4  0
 10 12  4  0
 10 22  4  0
 11 20  4  0
 11 21  4  0
 12 23  1  0
 13 20  4  0
 13 29  4  0
 14 17  4  0
 14 28  4  0
 15 25  2  0
 16 27  4  0
 17 18  4  0
 20 27  1  0
 24 27  4  0
 26 28  4  0
M  END
$$$$

 Created by Python create_sdf_string function

 29 33  0  0  0  0  0  0  0  0999 V2000
    8.8270   -7.0288   18.4251 C   0  0  0  0  0  0  0  0  0  0  0  0
    9.1576   -4.6236   15.8860 O   0  0  0  0  0  0  0  0  0  0  0  0
    9.1509   -5.9108   17.7177 C   0  0  0  0  0  0  0  0  0  0  0  0
    3.6373   -9.5349   16.0582 N   0  0  0  0  0  0  0  0  0  0  0  0
    9.9275   -4.8001   18.0438 N   0  0  0  0  0  0  0  0  0  0  0  0
    8.5908   -5.7425   16.4412 C   0  0  0  0  0  0  0  0  0  0  0  0
   10.5993   -4.8981   21.6068 C   0  0  0  0  0  0  0  0  0  0  0  0
   10.4258   -3.0106   23.0998 C   0  0  0  0  0  0  0  0  0  0  0  0
   10.2148   -3.4364   25.4200 C   0  0  0  0  0  0  0  0  0  0  0  0
    9.7853   -1.1840   24.4927 C   0  0  0  0  0  0  0  0  0  0  0  0
    5.0276   -8.5227   17.5352 C   0  0  0  0  0  0  0  0  0  0  0  0
    9.8187   -2.0895   25.5800 C   0  0  0  0  0  0  0  0  0  0  0  0
    5.6473   -8.7216   15.3158 C   0  0  0  0  0  0  0  0  0  0  0  0
   10.7581   -3.1233   19.4720 N   0  0  0  0  0  0  0  0  0  0  0  0
    9.9571   -4.0573   16.8866 C   0  0  0  0  0  0  0  0  0  0  0  0
    7.6213   -6.5618   16.0087 C   0  0  0  0  0  0  0  0  0  0  0  0
   10.8583   -2.6527   20.7222 C   0  0  0  0  0  0  0  0  0  0  0  0
   10.6412   -3.5089   21.7936 C   0  0  0  0  0  0  0  0  0  0  0  0
   10.4972   -3.8968   24.1589 C   0  0  0  0  0  0  0  0  0  0  0  0
    5.9260   -8.2736   16.5517 C   0  0  0  0  0  0  0  0  0  0  0  0
    3.8816   -9.1166   17.2493 C   0  0  0  0  0  0  0  0  0  0  0  0
   10.1297   -1.6575   23.2324 C   0  0  0  0  0  0  0  0  0  0  0  0
    9.4684   -1.6929   26.7263 F   0  0  0  0  0  0  0  0  0  0  0  0
    7.7963   -7.7906   17.9837 C   0  0  0  0  0  0  0  0  0  0  0  0
   10.5884   -3.0725   16.7902 O   0  0  0  0  0  0  0  0  0  0  0  0
   10.4323   -5.3494   20.3516 C   0  0  0  0  0  0  0  0  0  0  0  0
    7.1156   -7.5454   16.8218 C   0  0  0  0  0  0  0  0  0  0  0  0
   10.3885   -4.4388   19.2773 C   0  0  0  0  0  0  0  0  0  0  0  0
    4.5160   -9.3822   15.0841 C   0  0  0  0  0  0  0  0  0  0  0  0
  1  3  4  0
  1 24  4  0
  2  6  4  0
  2 15  4  0
  3  5  4  0
  3  6  4  0
  4 21  4  0
  4 29  4  0
  5 15  4  0
  5 28  1  0
  6 16  4  0
  7 18  4  0
  7 26  4  0
  8 18  1  0
  8 19  4  0
  8 22  4  0
  9 12  4  0
  9 19  4  0
 10 12  4  0
 10 22  4  0
 11 20  4  0
 11 21  4  0
 12 23  1  0
 13 20  4  0
 13 29  4  0
 14 17  4  0
 14 28  4  0
 15 25  2  0
 16 27  4  0
 17 18  4  0
 20 27  1  0
 24 27  4  0
 26 28  4  0
M  END
$$$$

 Created by Python create_sdf_string function

 29 33  0  0  0  0  0  0  0  0999 V2000
    8.8270   -7.0288   18.4251 C   0  0  0  0  0  0  0  0  0  0  0  0
    9.1576   -4.6236   15.8860 O   0  0  0  0  0  0  0  0  0  0  0  0
    9.1509   -5.9108   17.7177 C   0  0  0  0  0  0  0  0  0  0  0  0
    3.6373   -9.5349   16.0582 N   0  0  0  0  0  0  0  0  0  0  0  0
    9.9275   -4.8001   18.0438 N   0  0  0  0  0  0  0  0  0  0  0  0
    8.5908   -5.7425   16.4412 C   0  0  0  0  0  0  0  0  0  0  0  0
   10.5993   -4.8981   21.6068 C   0  0  0  0  0  0  0  0  0  0  0  0
   10.4258   -3.0106   23.0998 C   0  0  0  0  0  0  0  0  0  0  0  0
   10.2148   -3.4364   25.4200 C   0  0  0  0  0  0  0  0  0  0  0  0
    9.7853   -1.1840   24.4927 C   0  0  0  0  0  0  0  0  0  0  0  0
    5.0276   -8.5227   17.5352 C   0  0  0  0  0  0  0  0  0  0  0  0
    9.8187   -2.0895   25.5800 C   0  0  0  0  0  0  0  0  0  0  0  0
    5.6473   -8.7216   15.3158 C   0  0  0  0  0  0  0  0  0  0  0  0
   10.7581   -3.1233   19.4720 N   0  0  0  0  0  0  0  0  0  0  0  0
    9.9571   -4.0573   16.8866 C   0  0  0  0  0  0  0  0  0  0  0  0
    7.6213   -6.5618   16.0087 C   0  0  0  0  0  0  0  0  0  0  0  0
   10.8583   -2.6527   20.7222 C   0  0  0  0  0  0  0  0  0  0  0  0
   10.6412   -3.5089   21.7936 C   0  0  0  0  0  0  0  0  0  0  0  0
   10.4972   -3.8968   24.1589 C   0  0  0  0  0  0  0  0  0  0  0  0
    5.9260   -8.2736   16.5517 C   0  0  0  0  0  0  0  0  0  0  0  0
    3.8816   -9.1166   17.2493 C   0  0  0  0  0  0  0  0  0  0  0  0
   10.1297   -1.6575   23.2324 C   0  0  0  0  0  0  0  0  0  0  0  0
    9.4684   -1.6929   26.7263 F   0  0  0  0  0  0  0  0  0  0  0  0
    7.7963   -7.7906   17.9837 C   0  0  0  0  0  0  0  0  0  0  0  0
   10.5884   -3.0725   16.7902 O   0  0  0  0  0  0  0  0  0  0  0  0
   10.4323   -5.3494   20.3516 C   0  0  0  0  0  0  0  0  0  0  0  0
    7.1156   -7.5454   16.8218 C   0  0  0  0  0  0  0  0  0  0  0  0
   10.3885   -4.4388   19.2773 C   0  0  0  0  0  0  0  0  0  0  0  0
    4.5160   -9.3822   15.0841 C   0  0  0  0  0  0  0  0  0  0  0  0
  1  3  4  0
  1 24  4  0
  2  6  4  0
  2 15  4  0
  3  5  4  0
  3  6  4  0
  4 21  4  0
  4 29  4  0
  5 15  4  0
  5 28  1  0
  6 16  4  0
  7 18  4  0
  7 26  4  0
  8 18  1  0
  8 19  4  0
  8 22  4  0
  9 12  4  0
  9 19  4  0
 10 12  4  0
 10 22  4  0
 11 20  4  0
 11 21  4  0
 12 23  1  0
 13 20  4  0
 13 29  4  0
 14 17  4  0
 14 28  4  0
 15 25  2  0
 16 27  4  0
 17 18  4  0
 20 27  1  0
 24 27  4  0
 26 28  4  0
M  END
$$$$

 Created by Python create_sdf_string function

 29 33  0  0  0  0  0  0  0  0999 V2000
    8.8270   -7.0288   18.4251 C   0  0  0  0  0  0  0  0  0  0  0  0
    9.1576   -4.6236   15.8860 O   0  0  0  0  0  0  0  0  0  0  0  0
    9.1509   -5.9108   17.7177 C   0  0  0  0  0  0  0  0  0  0  0  0
    3.6373   -9.5349   16.0582 N   0  0  0  0  0  0  0  0  0  0  0  0
    9.9275   -4.8001   18.0438 N   0  0  0  0  0  0  0  0  0  0  0  0
    8.5908   -5.7425   16.4412 C   0  0  0  0  0  0  0  0  0  0  0  0
   10.5993   -4.8981   21.6068 C   0  0  0  0  0  0  0  0  0  0  0  0
   10.4258   -3.0106   23.0998 C   0  0  0  0  0  0  0  0  0  0  0  0
   10.2148   -3.4364   25.4200 C   0  0  0  0  0  0  0  0  0  0  0  0
    9.7853   -1.1840   24.4927 C   0  0  0  0  0  0  0  0  0  0  0  0
    5.0276   -8.5227   17.5352 C   0  0  0  0  0  0  0  0  0  0  0  0
    9.8187   -2.0895   25.5800 C   0  0  0  0  0  0  0  0  0  0  0  0
    5.6473   -8.7216   15.3158 C   0  0  0  0  0  0  0  0  0  0  0  0
   10.7581   -3.1233   19.4720 N   0  0  0  0  0  0  0  0  0  0  0  0
    9.9571   -4.0573   16.8866 C   0  0  0  0  0  0  0  0  0  0  0  0
    7.6213   -6.5618   16.0087 C   0  0  0  0  0  0  0  0  0  0  0  0
   10.8583   -2.6527   20.7222 C   0  0  0  0  0  0  0  0  0  0  0  0
   10.6412   -3.5089   21.7936 C   0  0  0  0  0  0  0  0  0  0  0  0
   10.4972   -3.8968   24.1589 C   0  0  0  0  0  0  0  0  0  0  0  0
    5.9260   -8.2736   16.5517 C   0  0  0  0  0  0  0  0  0  0  0  0
    3.8816   -9.1166   17.2493 C   0  0  0  0  0  0  0  0  0  0  0  0
   10.1297   -1.6575   23.2324 C   0  0  0  0  0  0  0  0  0  0  0  0
    9.4684   -1.6929   26.7263 F   0  0  0  0  0  0  0  0  0  0  0  0
    7.7963   -7.7906   17.9837 C   0  0  0  0  0  0  0  0  0  0  0  0
   10.5884   -3.0725   16.7902 O   0  0  0  0  0  0  0  0  0  0  0  0
   10.4323   -5.3494   20.3516 C   0  0  0  0  0  0  0  0  0  0  0  0
    7.1156   -7.5454   16.8218 C   0  0  0  0  0  0  0  0  0  0  0  0
   10.3885   -4.4388   19.2773 C   0  0  0  0  0  0  0  0  0  0  0  0
    4.5160   -9.3822   15.0841 C   0  0  0  0  0  0  0  0  0  0  0  0
  1  3  4  0
  1 24  4  0
  2  6  4  0
  2 15  4  0
  3  5  4  0
  3  6  4  0
  4 21  4  0
  4 29  4  0
  5 15  4  0
  5 28  1  0
  6 16  4  0
  7 18  4  0
  7 26  4  0
  8 18  1  0
  8 19  4  0
  8 22  4  0
  9 12  4  0
  9 19  4  0
 10 12  4  0
 10 22  4  0
 11 20  4  0
 11 21  4  0
 12 23  1  0
 13 20  4  0
 13 29  4  0
 14 17  4  0
 14 28  4  0
 15 25  2  0
 16 27  4  0
 17 18  4  0
 20 27  1  0
 24 27  4  0
 26 28  4  0
M  END
$$$$

 Created by Python create_sdf_string function

 29 33  0  0  0  0  0  0  0  0999 V2000
    8.8270   -7.0288   18.4251 C   0  0  0  0  0  0  0  0  0  0  0  0
    9.1576   -4.6236   15.8860 O   0  0  0  0  0  0  0  0  0  0  0  0
    9.1509   -5.9108   17.7177 C   0  0  0  0  0  0  0  0  0  0  0  0
    3.6373   -9.5349   16.0582 N   0  0  0  0  0  0  0  0  0  0  0  0
    9.9275   -4.8001   18.0438 N   0  0  0  0  0  0  0  0  0  0  0  0
    8.5908   -5.7425   16.4412 C   0  0  0  0  0  0  0  0  0  0  0  0
   10.5993   -4.8981   21.6068 C   0  0  0  0  0  0  0  0  0  0  0  0
   10.4258   -3.0106   23.0998 C   0  0  0  0  0  0  0  0  0  0  0  0
   10.2148   -3.4364   25.4200 C   0  0  0  0  0  0  0  0  0  0  0  0
    9.7853   -1.1840   24.4927 C   0  0  0  0  0  0  0  0  0  0  0  0
    5.0276   -8.5227   17.5352 C   0  0  0  0  0  0  0  0  0  0  0  0
    9.8187   -2.0895   25.5800 C   0  0  0  0  0  0  0  0  0  0  0  0
    5.6473   -8.7216   15.3158 C   0  0  0  0  0  0  0  0  0  0  0  0
   10.7581   -3.1233   19.4720 N   0  0  0  0  0  0  0  0  0  0  0  0
    9.9571   -4.0573   16.8866 C   0  0  0  0  0  0  0  0  0  0  0  0
    7.6213   -6.5618   16.0087 C   0  0  0  0  0  0  0  0  0  0  0  0
   10.8583   -2.6527   20.7222 C   0  0  0  0  0  0  0  0  0  0  0  0
   10.6412   -3.5089   21.7936 C   0  0  0  0  0  0  0  0  0  0  0  0
   10.4972   -3.8968   24.1589 C   0  0  0  0  0  0  0  0  0  0  0  0
    5.9260   -8.2736   16.5517 C   0  0  0  0  0  0  0  0  0  0  0  0
    3.8816   -9.1166   17.2493 C   0  0  0  0  0  0  0  0  0  0  0  0
   10.1297   -1.6575   23.2324 C   0  0  0  0  0  0  0  0  0  0  0  0
    9.4684   -1.6929   26.7263 F   0  0  0  0  0  0  0  0  0  0  0  0
    7.7963   -7.7906   17.9837 C   0  0  0  0  0  0  0  0  0  0  0  0
   10.5884   -3.0725   16.7902 O   0  0  0  0  0  0  0  0  0  0  0  0
   10.4323   -5.3494   20.3516 C   0  0  0  0  0  0  0  0  0  0  0  0
    7.1156   -7.5454   16.8218 C   0  0  0  0  0  0  0  0  0  0  0  0
   10.3885   -4.4388   19.2773 C   0  0  0  0  0  0  0  0  0  0  0  0
    4.5160   -9.3822   15.0841 C   0  0  0  0  0  0  0  0  0  0  0  0
  1  3  4  0
  1 24  4  0
  2  6  4  0
  2 15  4  0
  3  5  4  0
  3  6  4  0
  4 21  4  0
  4 29  4  0
  5 15  4  0
  5 28  1  0
  6 16  4  0
  7 18  4  0
  7 26  4  0
  8 18  1  0
  8 19  4  0
  8 22  4  0
  9 12  4  0
  9 19  4  0
 10 12  4  0
 10 22  4  0
 11 20  4  0
 11 21  4  0
 12 23  1  0
 13 20  4  0
 13 29  4  0
 14 17  4  0
 14 28  4  0
 15 25  2  0
 16 27  4  0
 17 18  4  0
 20 27  1  0
 24 27  4  0
 26 28  4  0
M  END
$$$$

 Created by Python create_sdf_string function

 29 33  0  0  0  0  0  0  0  0999 V2000
    8.8270   -7.0288   18.4251 C   0  0  0  0  0  0  0  0  0  0  0  0
    9.1576   -4.6236   15.8860 O   0  0  0  0  0  0  0  0  0  0  0  0
    9.1509   -5.9108   17.7177 C   0  0  0  0  0  0  0  0  0  0  0  0
    3.6373   -9.5349   16.0582 N   0  0  0  0  0  0  0  0  0  0  0  0
    9.9275   -4.8001   18.0438 N   0  0  0  0  0  0  0  0  0  0  0  0
    8.5908   -5.7425   16.4412 C   0  0  0  0  0  0  0  0  0  0  0  0
   10.5993   -4.8981   21.6068 C   0  0  0  0  0  0  0  0  0  0  0  0
   10.4258   -3.0106   23.0998 C   0  0  0  0  0  0  0  0  0  0  0  0
   10.2148   -3.4364   25.4200 C   0  0  0  0  0  0  0  0  0  0  0  0
    9.7853   -1.1840   24.4927 C   0  0  0  0  0  0  0  0  0  0  0  0
    5.0276   -8.5227   17.5352 C   0  0  0  0  0  0  0  0  0  0  0  0
    9.8187   -2.0895   25.5800 C   0  0  0  0  0  0  0  0  0  0  0  0
    5.6473   -8.7216   15.3158 C   0  0  0  0  0  0  0  0  0  0  0  0
   10.7581   -3.1233   19.4720 N   0  0  0  0  0  0  0  0  0  0  0  0
    9.9571   -4.0573   16.8866 C   0  0  0  0  0  0  0  0  0  0  0  0
    7.6213   -6.5618   16.0087 C   0  0  0  0  0  0  0  0  0  0  0  0
   10.8583   -2.6527   20.7222 C   0  0  0  0  0  0  0  0  0  0  0  0
   10.6412   -3.5089   21.7936 C   0  0  0  0  0  0  0  0  0  0  0  0
   10.4972   -3.8968   24.1589 C   0  0  0  0  0  0  0  0  0  0  0  0
    5.9260   -8.2736   16.5517 C   0  0  0  0  0  0  0  0  0  0  0  0
    3.8816   -9.1166   17.2493 C   0  0  0  0  0  0  0  0  0  0  0  0
   10.1297   -1.6575   23.2324 C   0  0  0  0  0  0  0  0  0  0  0  0
    9.4684   -1.6929   26.7263 F   0  0  0  0  0  0  0  0  0  0  0  0
    7.7963   -7.7906   17.9837 C   0  0  0  0  0  0  0  0  0  0  0  0
   10.5884   -3.0725   16.7902 O   0  0  0  0  0  0  0  0  0  0  0  0
   10.4323   -5.3494   20.3516 C   0  0  0  0  0  0  0  0  0  0  0  0
    7.1156   -7.5454   16.8218 C   0  0  0  0  0  0  0  0  0  0  0  0
   10.3885   -4.4388   19.2773 C   0  0  0  0  0  0  0  0  0  0  0  0
    4.5160   -9.3822   15.0841 C   0  0  0  0  0  0  0  0  0  0  0  0
  1  3  4  0
  1 24  4  0
  2  6  4  0
  2 15  4  0
  3  5  4  0
  3  6  4  0
  4 21  4  0
  4 29  4  0
  5 15  4  0
  5 28  1  0
  6 16  4  0
  7 18  4  0
  7 26  4  0
  8 18  1  0
  8 19  4  0
  8 22  4  0
  9 12  4  0
  9 19  4  0
 10 12  4  0
 10 22  4  0
 11 20  4  0
 11 21  4  0
 12 23  1  0
 13 20  4  0
 13 29  4  0
 14 17  4  0
 14 28  4  0
 15 25  2  0
 16 27  4  0
 17 18  4  0
 20 27  1  0
 24 27  4  0
 26 28  4  0
M  END
$$$$

 Created by Python create_sdf_string function

 29 33  0  0  0  0  0  0  0  0999 V2000
    8.8270   -7.0288   18.4251 C   0  0  0  0  0  0  0  0  0  0  0  0
    9.1576   -4.6236   15.8860 O   0  0  0  0  0  0  0  0  0  0  0  0
    9.1509   -5.9108   17.7177 C   0  0  0  0  0  0  0  0  0  0  0  0
    3.6373   -9.5349   16.0582 N   0  0  0  0  0  0  0  0  0  0  0  0
    9.9275   -4.8001   18.0438 N   0  0  0  0  0  0  0  0  0  0  0  0
    8.5908   -5.7425   16.4412 C   0  0  0  0  0  0  0  0  0  0  0  0
   10.5993   -4.8981   21.6068 C   0  0  0  0  0  0  0  0  0  0  0  0
   10.4258   -3.0106   23.0998 C   0  0  0  0  0  0  0  0  0  0  0  0
   10.2148   -3.4364   25.4200 C   0  0  0  0  0  0  0  0  0  0  0  0
    9.7853   -1.1840   24.4927 C   0  0  0  0  0  0  0  0  0  0  0  0
    5.0276   -8.5227   17.5352 C   0  0  0  0  0  0  0  0  0  0  0  0
    9.8187   -2.0895   25.5800 C   0  0  0  0  0  0  0  0  0  0  0  0
    5.6473   -8.7216   15.3158 C   0  0  0  0  0  0  0  0  0  0  0  0
   10.7581   -3.1233   19.4720 N   0  0  0  0  0  0  0  0  0  0  0  0
    9.9571   -4.0573   16.8866 C   0  0  0  0  0  0  0  0  0  0  0  0
    7.6213   -6.5618   16.0087 C   0  0  0  0  0  0  0  0  0  0  0  0
   10.8583   -2.6527   20.7222 C   0  0  0  0  0  0  0  0  0  0  0  0
   10.6412   -3.5089   21.7936 C   0  0  0  0  0  0  0  0  0  0  0  0
   10.4972   -3.8968   24.1589 C   0  0  0  0  0  0  0  0  0  0  0  0
    5.9260   -8.2736   16.5517 C   0  0  0  0  0  0  0  0  0  0  0  0
    3.8816   -9.1166   17.2493 C   0  0  0  0  0  0  0  0  0  0  0  0
   10.1297   -1.6575   23.2324 C   0  0  0  0  0  0  0  0  0  0  0  0
    9.4684   -1.6929   26.7263 F   0  0  0  0  0  0  0  0  0  0  0  0
    7.7963   -7.7906   17.9837 C   0  0  0  0  0  0  0  0  0  0  0  0
   10.5884   -3.0725   16.7902 O   0  0  0  0  0  0  0  0  0  0  0  0
   10.4323   -5.3494   20.3516 C   0  0  0  0  0  0  0  0  0  0  0  0
    7.1156   -7.5454   16.8218 C   0  0  0  0  0  0  0  0  0  0  0  0
   10.3885   -4.4388   19.2773 C   0  0  0  0  0  0  0  0  0  0  0  0
    4.5160   -9.3822   15.0841 C   0  0  0  0  0  0  0  0  0  0  0  0
  1  3  4  0
  1 24  4  0
  2  6  4  0
  2 15  4  0
  3  5  4  0
  3  6  4  0
  4 21  4  0
  4 29  4  0
  5 15  4  0
  5 28  1  0
  6 16  4  0
  7 18  4  0
  7 26  4  0
  8 18  1  0
  8 19  4  0
  8 22  4  0
  9 12  4  0
  9 19  4  0
 10 12  4  0
 10 22  4  0
 11 20  4  0
 11 21  4  0
 12 23  1  0
 13 20  4  0
 13 29  4  0
 14 17  4  0
 14 28  4  0
 15 25  2  0
 16 27  4  0
 17 18  4  0
 20 27  1  0
 24 27  4  0
 26 28  4  0
M  END
$$$$

 Created by Python create_sdf_string function

 29 33  0  0  0  0  0  0  0  0999 V2000
    8.8270   -7.0288   18.4251 C   0  0  0  0  0  0  0  0  0  0  0  0
    9.1576   -4.6236   15.8860 O   0  0  0  0  0  0  0  0  0  0  0  0
    9.1509   -5.9108   17.7177 C   0  0  0  0  0  0  0  0  0  0  0  0
    3.6373   -9.5349   16.0582 N   0  0  0  0  0  0  0  0  0  0  0  0
    9.9275   -4.8001   18.0438 N   0  0  0  0  0  0  0  0  0  0  0  0
    8.5908   -5.7425   16.4412 C   0  0  0  0  0  0  0  0  0  0  0  0
   10.5993   -4.8981   21.6068 C   0  0  0  0  0  0  0  0  0  0  0  0
   10.4258   -3.0106   23.0998 C   0  0  0  0  0  0  0  0  0  0  0  0
   10.2148   -3.4364   25.4200 C   0  0  0  0  0  0  0  0  0  0  0  0
    9.7853   -1.1840   24.4927 C   0  0  0  0  0  0  0  0  0  0  0  0
    5.0276   -8.5227   17.5352 C   0  0  0  0  0  0  0  0  0  0  0  0
    9.8187   -2.0895   25.5800 C   0  0  0  0  0  0  0  0  0  0  0  0
    5.6473   -8.7216   15.3158 C   0  0  0  0  0  0  0  0  0  0  0  0
   10.7581   -3.1233   19.4720 N   0  0  0  0  0  0  0  0  0  0  0  0
    9.9571   -4.0573   16.8866 C   0  0  0  0  0  0  0  0  0  0  0  0
    7.6213   -6.5618   16.0087 C   0  0  0  0  0  0  0  0  0  0  0  0
   10.8583   -2.6527   20.7222 C   0  0  0  0  0  0  0  0  0  0  0  0
   10.6412   -3.5089   21.7936 C   0  0  0  0  0  0  0  0  0  0  0  0
   10.4972   -3.8968   24.1589 C   0  0  0  0  0  0  0  0  0  0  0  0
    5.9260   -8.2736   16.5517 C   0  0  0  0  0  0  0  0  0  0  0  0
    3.8816   -9.1166   17.2493 C   0  0  0  0  0  0  0  0  0  0  0  0
   10.1297   -1.6575   23.2324 C   0  0  0  0  0  0  0  0  0  0  0  0
    9.4684   -1.6929   26.7263 F   0  0  0  0  0  0  0  0  0  0  0  0
    7.7963   -7.7906   17.9837 C   0  0  0  0  0  0  0  0  0  0  0  0
   10.5884   -3.0725   16.7902 O   0  0  0  0  0  0  0  0  0  0  0  0
   10.4323   -5.3494   20.3516 C   0  0  0  0  0  0  0  0  0  0  0  0
    7.1156   -7.5454   16.8218 C   0  0  0  0  0  0  0  0  0  0  0  0
   10.3885   -4.4388   19.2773 C   0  0  0  0  0  0  0  0  0  0  0  0
    4.5160   -9.3822   15.0841 C   0  0  0  0  0  0  0  0  0  0  0  0
  1  3  4  0
  1 24  4  0
  2  6  4  0
  2 15  4  0
  3  5  4  0
  3  6  4  0
  4 21  4  0
  4 29  4  0
  5 15  4  0
  5 28  1  0
  6 16  4  0
  7 18  4  0
  7 26  4  0
  8 18  1  0
  8 19  4  0
  8 22  4  0
  9 12  4  0
  9 19  4  0
 10 12  4  0
 10 22  4  0
 11 20  4  0
 11 21  4  0
 12 23  1  0
 13 20  4  0
 13 29  4  0
 14 17  4  0
 14 28  4  0
 15 25  2  0
 16 27  4  0
 17 18  4  0
 20 27  1  0
 24 27  4  0
 26 28  4  0
M  END
$$$$

 Created by Python create_sdf_string function

 29 33  0  0  0  0  0  0  0  0999 V2000
    8.8270   -7.0288   18.4251 C   0  0  0  0  0  0  0  0  0  0  0  0
    9.1576   -4.6236   15.8860 O   0  0  0  0  0  0  0  0  0  0  0  0
    9.1509   -5.9108   17.7177 C   0  0  0  0  0  0  0  0  0  0  0  0
    3.6373   -9.5349   16.0582 N   0  0  0  0  0  0  0  0  0  0  0  0
    9.9275   -4.8001   18.0438 N   0  0  0  0  0  0  0  0  0  0  0  0
    8.5908   -5.7425   16.4412 C   0  0  0  0  0  0  0  0  0  0  0  0
   10.5993   -4.8981   21.6068 C   0  0  0  0  0  0  0  0  0  0  0  0
   10.4258   -3.0106   23.0998 C   0  0  0  0  0  0  0  0  0  0  0  0
   10.2148   -3.4364   25.4200 C   0  0  0  0  0  0  0  0  0  0  0  0
    9.7853   -1.1840   24.4927 C   0  0  0  0  0  0  0  0  0  0  0  0
    5.0276   -8.5227   17.5352 C   0  0  0  0  0  0  0  0  0  0  0  0
    9.8187   -2.0895   25.5800 C   0  0  0  0  0  0  0  0  0  0  0  0
    5.6473   -8.7216   15.3158 C   0  0  0  0  0  0  0  0  0  0  0  0
   10.7581   -3.1233   19.4720 N   0  0  0  0  0  0  0  0  0  0  0  0
    9.9571   -4.0573   16.8866 C   0  0  0  0  0  0  0  0  0  0  0  0
    7.6213   -6.5618   16.0087 C   0  0  0  0  0  0  0  0  0  0  0  0
   10.8583   -2.6527   20.7222 C   0  0  0  0  0  0  0  0  0  0  0  0
   10.6412   -3.5089   21.7936 C   0  0  0  0  0  0  0  0  0  0  0  0
   10.4972   -3.8968   24.1589 C   0  0  0  0  0  0  0  0  0  0  0  0
    5.9260   -8.2736   16.5517 C   0  0  0  0  0  0  0  0  0  0  0  0
    3.8816   -9.1166   17.2493 C   0  0  0  0  0  0  0  0  0  0  0  0
   10.1297   -1.6575   23.2324 C   0  0  0  0  0  0  0  0  0  0  0  0
    9.4684   -1.6929   26.7263 F   0  0  0  0  0  0  0  0  0  0  0  0
    7.7963   -7.7906   17.9837 C   0  0  0  0  0  0  0  0  0  0  0  0
   10.5884   -3.0725   16.7902 O   0  0  0  0  0  0  0  0  0  0  0  0
   10.4323   -5.3494   20.3516 C   0  0  0  0  0  0  0  0  0  0  0  0
    7.1156   -7.5454   16.8218 C   0  0  0  0  0  0  0  0  0  0  0  0
   10.3885   -4.4388   19.2773 C   0  0  0  0  0  0  0  0  0  0  0  0
    4.5160   -9.3822   15.0841 C   0  0  0  0  0  0  0  0  0  0  0  0
  1  3  4  0
  1 24  4  0
  2  6  4  0
  2 15  4  0
  3  5  4  0
  3  6  4  0
  4 21  4  0
  4 29  4  0
  5 15  4  0
  5 28  1  0
  6 16  4  0
  7 18  4  0
  7 26  4  0
  8 18  1  0
  8 19  4  0
  8 22  4  0
  9 12  4  0
  9 19  4  0
 10 12  4  0
 10 22  4  0
 11 20  4  0
 11 21  4  0
 12 23  1  0
 13 20  4  0
 13 29  4  0
 14 17  4  0
 14 28  4  0
 15 25  2  0
 16 27  4  0
 17 18  4  0
 20 27  1  0
 24 27  4  0
 26 28  4  0
M  END
$$$$

 Created by Python create_sdf_string function

 29 33  0  0  0  0  0  0  0  0999 V2000
    8.8270   -7.0288   18.4251 C   0  0  0  0  0  0  0  0  0  0  0  0
    9.1576   -4.6236   15.8860 O   0  0  0  0  0  0  0  0  0  0  0  0
    9.1509   -5.9108   17.7177 C   0  0  0  0  0  0  0  0  0  0  0  0
    3.6373   -9.5349   16.0582 N   0  0  0  0  0  0  0  0  0  0  0  0
    9.9275   -4.8001   18.0438 N   0  0  0  0  0  0  0  0  0  0  0  0
    8.5908   -5.7425   16.4412 C   0  0  0  0  0  0  0  0  0  0  0  0
   10.5993   -4.8981   21.6068 C   0  0  0  0  0  0  0  0  0  0  0  0
   10.4258   -3.0106   23.0998 C   0  0  0  0  0  0  0  0  0  0  0  0
   10.2148   -3.4364   25.4200 C   0  0  0  0  0  0  0  0  0  0  0  0
    9.7853   -1.1840   24.4927 C   0  0  0  0  0  0  0  0  0  0  0  0
    5.0276   -8.5227   17.5352 C   0  0  0  0  0  0  0  0  0  0  0  0
    9.8187   -2.0895   25.5800 C   0  0  0  0  0  0  0  0  0  0  0  0
    5.6473   -8.7216   15.3158 C   0  0  0  0  0  0  0  0  0  0  0  0
   10.7581   -3.1233   19.4720 N   0  0  0  0  0  0  0  0  0  0  0  0
    9.9571   -4.0573   16.8866 C   0  0  0  0  0  0  0  0  0  0  0  0
    7.6213   -6.5618   16.0087 C   0  0  0  0  0  0  0  0  0  0  0  0
   10.8583   -2.6527   20.7222 C   0  0  0  0  0  0  0  0  0  0  0  0
   10.6412   -3.5089   21.7936 C   0  0  0  0  0  0  0  0  0  0  0  0
   10.4972   -3.8968   24.1589 C   0  0  0  0  0  0  0  0  0  0  0  0
    5.9260   -8.2736   16.5517 C   0  0  0  0  0  0  0  0  0  0  0  0
    3.8816   -9.1166   17.2493 C   0  0  0  0  0  0  0  0  0  0  0  0
   10.1297   -1.6575   23.2324 C   0  0  0  0  0  0  0  0  0  0  0  0
    9.4684   -1.6929   26.7263 F   0  0  0  0  0  0  0  0  0  0  0  0
    7.7963   -7.7906   17.9837 C   0  0  0  0  0  0  0  0  0  0  0  0
   10.5884   -3.0725   16.7902 O   0  0  0  0  0  0  0  0  0  0  0  0
   10.4323   -5.3494   20.3516 C   0  0  0  0  0  0  0  0  0  0  0  0
    7.1156   -7.5454   16.8218 C   0  0  0  0  0  0  0  0  0  0  0  0
   10.3885   -4.4388   19.2773 C   0  0  0  0  0  0  0  0  0  0  0  0
    4.5160   -9.3822   15.0841 C   0  0  0  0  0  0  0  0  0  0  0  0
  1  3  4  0
  1 24  4  0
  2  6  4  0
  2 15  4  0
  3  5  4  0
  3  6  4  0
  4 21  4  0
  4 29  4  0
  5 15  4  0
  5 28  1  0
  6 16  4  0
  7 18  4  0
  7 26  4  0
  8 18  1  0
  8 19  4  0
  8 22  4  0
  9 12  4  0
  9 19  4  0
 10 12  4  0
 10 22  4  0
 11 20  4  0
 11 21  4  0
 12 23  1  0
 13 20  4  0
 13 29  4  0
 14 17  4  0
 14 28  4  0
 15 25  2  0
 16 27  4  0
 17 18  4  0
 20 27  1  0
 24 27  4  0
 26 28  4  0
M  END
$$$$

 Created by Python create_sdf_string function

 29 33  0  0  0  0  0  0  0  0999 V2000
    8.8270   -7.0288   18.4251 C   0  0  0  0  0  0  0  0  0  0  0  0
    9.1576   -4.6236   15.8860 O   0  0  0  0  0  0  0  0  0  0  0  0
    9.1509   -5.9108   17.7177 C   0  0  0  0  0  0  0  0  0  0  0  0
    3.6373   -9.5349   16.0582 N   0  0  0  0  0  0  0  0  0  0  0  0
    9.9275   -4.8001   18.0438 N   0  0  0  0  0  0  0  0  0  0  0  0
    8.5908   -5.7425   16.4412 C   0  0  0  0  0  0  0  0  0  0  0  0
   10.5993   -4.8981   21.6068 C   0  0  0  0  0  0  0  0  0  0  0  0
   10.4258   -3.0106   23.0998 C   0  0  0  0  0  0  0  0  0  0  0  0
   10.2148   -3.4364   25.4200 C   0  0  0  0  0  0  0  0  0  0  0  0
    9.7853   -1.1840   24.4927 C   0  0  0  0  0  0  0  0  0  0  0  0
    5.0276   -8.5227   17.5352 C   0  0  0  0  0  0  0  0  0  0  0  0
    9.8187   -2.0895   25.5800 C   0  0  0  0  0  0  0  0  0  0  0  0
    5.6473   -8.7216   15.3158 C   0  0  0  0  0  0  0  0  0  0  0  0
   10.7581   -3.1233   19.4720 N   0  0  0  0  0  0  0  0  0  0  0  0
    9.9571   -4.0573   16.8866 C   0  0  0  0  0  0  0  0  0  0  0  0
    7.6213   -6.5618   16.0087 C   0  0  0  0  0  0  0  0  0  0  0  0
   10.8583   -2.6527   20.7222 C   0  0  0  0  0  0  0  0  0  0  0  0
   10.6412   -3.5089   21.7936 C   0  0  0  0  0  0  0  0  0  0  0  0
   10.4972   -3.8968   24.1589 C   0  0  0  0  0  0  0  0  0  0  0  0
    5.9260   -8.2736   16.5517 C   0  0  0  0  0  0  0  0  0  0  0  0
    3.8816   -9.1166   17.2493 C   0  0  0  0  0  0  0  0  0  0  0  0
   10.1297   -1.6575   23.2324 C   0  0  0  0  0  0  0  0  0  0  0  0
    9.4684   -1.6929   26.7263 F   0  0  0  0  0  0  0  0  0  0  0  0
    7.7963   -7.7906   17.9837 C   0  0  0  0  0  0  0  0  0  0  0  0
   10.5884   -3.0725   16.7902 O   0  0  0  0  0  0  0  0  0  0  0  0
   10.4323   -5.3494   20.3516 C   0  0  0  0  0  0  0  0  0  0  0  0
    7.1156   -7.5454   16.8218 C   0  0  0  0  0  0  0  0  0  0  0  0
   10.3885   -4.4388   19.2773 C   0  0  0  0  0  0  0  0  0  0  0  0
    4.5160   -9.3822   15.0841 C   0  0  0  0  0  0  0  0  0  0  0  0
  1  3  4  0
  1 24  4  0
  2  6  4  0
  2 15  4  0
  3  5  4  0
  3  6  4  0
  4 21  4  0
  4 29  4  0
  5 15  4  0
  5 28  1  0
  6 16  4  0
  7 18  4  0
  7 26  4  0
  8 18  1  0
  8 19  4  0
  8 22  4  0
  9 12  4  0
  9 19  4  0
 10 12  4  0
 10 22  4  0
 11 20  4  0
 11 21  4  0
 12 23  1  0
 13 20  4  0
 13 29  4  0
 14 17  4  0
 14 28  4  0
 15 25  2  0
 16 27  4  0
 17 18  4  0
 20 27  1  0
 24 27  4  0
 26 28  4  0
M  END
$$$$

 Created by Python create_sdf_string function

 29 33  0  0  0  0  0  0  0  0999 V2000
    8.8270   -7.0288   18.4251 C   0  0  0  0  0  0  0  0  0  0  0  0
    9.1576   -4.6236   15.8860 O   0  0  0  0  0  0  0  0  0  0  0  0
    9.1509   -5.9108   17.7177 C   0  0  0  0  0  0  0  0  0  0  0  0
    3.6373   -9.5349   16.0582 N   0  0  0  0  0  0  0  0  0  0  0  0
    9.9275   -4.8001   18.0438 N   0  0  0  0  0  0  0  0  0  0  0  0
    8.5908   -5.7425   16.4412 C   0  0  0  0  0  0  0  0  0  0  0  0
   10.5993   -4.8981   21.6068 C   0  0  0  0  0  0  0  0  0  0  0  0
   10.4258   -3.0106   23.0998 C   0  0  0  0  0  0  0  0  0  0  0  0
   10.2148   -3.4364   25.4200 C   0  0  0  0  0  0  0  0  0  0  0  0
    9.7853   -1.1840   24.4927 C   0  0  0  0  0  0  0  0  0  0  0  0
    5.0276   -8.5227   17.5352 C   0  0  0  0  0  0  0  0  0  0  0  0
    9.8187   -2.0895   25.5800 C   0  0  0  0  0  0  0  0  0  0  0  0
    5.6473   -8.7216   15.3158 C   0  0  0  0  0  0  0  0  0  0  0  0
   10.7581   -3.1233   19.4720 N   0  0  0  0  0  0  0  0  0  0  0  0
    9.9571   -4.0573   16.8866 C   0  0  0  0  0  0  0  0  0  0  0  0
    7.6213   -6.5618   16.0087 C   0  0  0  0  0  0  0  0  0  0  0  0
   10.8583   -2.6527   20.7222 C   0  0  0  0  0  0  0  0  0  0  0  0
   10.6412   -3.5089   21.7936 C   0  0  0  0  0  0  0  0  0  0  0  0
   10.4972   -3.8968   24.1589 C   0  0  0  0  0  0  0  0  0  0  0  0
    5.9260   -8.2736   16.5517 C   0  0  0  0  0  0  0  0  0  0  0  0
    3.8816   -9.1166   17.2493 C   0  0  0  0  0  0  0  0  0  0  0  0
   10.1297   -1.6575   23.2324 C   0  0  0  0  0  0  0  0  0  0  0  0
    9.4684   -1.6929   26.7263 F   0  0  0  0  0  0  0  0  0  0  0  0
    7.7963   -7.7906   17.9837 C   0  0  0  0  0  0  0  0  0  0  0  0
   10.5884   -3.0725   16.7902 O   0  0  0  0  0  0  0  0  0  0  0  0
   10.4323   -5.3494   20.3516 C   0  0  0  0  0  0  0  0  0  0  0  0
    7.1156   -7.5454   16.8218 C   0  0  0  0  0  0  0  0  0  0  0  0
   10.3885   -4.4388   19.2773 C   0  0  0  0  0  0  0  0  0  0  0  0
    4.5160   -9.3822   15.0841 C   0  0  0  0  0  0  0  0  0  0  0  0
  1  3  4  0
  1 24  4  0
  2  6  4  0
  2 15  4  0
  3  5  4  0
  3  6  4  0
  4 21  4  0
  4 29  4  0
  5 15  4  0
  5 28  1  0
  6 16  4  0
  7 18  4  0
  7 26  4  0
  8 18  1  0
  8 19  4  0
  8 22  4  0
  9 12  4  0
  9 19  4  0
 10 12  4  0
 10 22  4  0
 11 20  4  0
 11 21  4  0
 12 23  1  0
 13 20  4  0
 13 29  4  0
 14 17  4  0
 14 28  4  0
 15 25  2  0
 16 27  4  0
 17 18  4  0
 20 27  1  0
 24 27  4  0
 26 28  4  0
M  END
$$$$

 Created by Python create_sdf_string function

 29 33  0  0  0  0  0  0  0  0999 V2000
    8.8270   -7.0288   18.4251 C   0  0  0  0  0  0  0  0  0  0  0  0
    9.1576   -4.6236   15.8860 O   0  0  0  0  0  0  0  0  0  0  0  0
    9.1509   -5.9108   17.7177 C   0  0  0  0  0  0  0  0  0  0  0  0
    3.6373   -9.5349   16.0582 N   0  0  0  0  0  0  0  0  0  0  0  0
    9.9275   -4.8001   18.0438 N   0  0  0  0  0  0  0  0  0  0  0  0
    8.5908   -5.7425   16.4412 C   0  0  0  0  0  0  0  0  0  0  0  0
   10.5993   -4.8981   21.6068 C   0  0  0  0  0  0  0  0  0  0  0  0
   10.4258   -3.0106   23.0998 C   0  0  0  0  0  0  0  0  0  0  0  0
   10.2148   -3.4364   25.4200 C   0  0  0  0  0  0  0  0  0  0  0  0
    9.7853   -1.1840   24.4927 C   0  0  0  0  0  0  0  0  0  0  0  0
    5.0276   -8.5227   17.5352 C   0  0  0  0  0  0  0  0  0  0  0  0
    9.8187   -2.0895   25.5800 C   0  0  0  0  0  0  0  0  0  0  0  0
    5.6473   -8.7216   15.3158 C   0  0  0  0  0  0  0  0  0  0  0  0
   10.7581   -3.1233   19.4720 N   0  0  0  0  0  0  0  0  0  0  0  0
    9.9571   -4.0573   16.8866 C   0  0  0  0  0  0  0  0  0  0  0  0
    7.6213   -6.5618   16.0087 C   0  0  0  0  0  0  0  0  0  0  0  0
   10.8583   -2.6527   20.7222 C   0  0  0  0  0  0  0  0  0  0  0  0
   10.6412   -3.5089   21.7936 C   0  0  0  0  0  0  0  0  0  0  0  0
   10.4972   -3.8968   24.1589 C   0  0  0  0  0  0  0  0  0  0  0  0
    5.9260   -8.2736   16.5517 C   0  0  0  0  0  0  0  0  0  0  0  0
    3.8816   -9.1166   17.2493 C   0  0  0  0  0  0  0  0  0  0  0  0
   10.1297   -1.6575   23.2324 C   0  0  0  0  0  0  0  0  0  0  0  0
    9.4684   -1.6929   26.7263 F   0  0  0  0  0  0  0  0  0  0  0  0
    7.7963   -7.7906   17.9837 C   0  0  0  0  0  0  0  0  0  0  0  0
   10.5884   -3.0725   16.7902 O   0  0  0  0  0  0  0  0  0  0  0  0
   10.4323   -5.3494   20.3516 C   0  0  0  0  0  0  0  0  0  0  0  0
    7.1156   -7.5454   16.8218 C   0  0  0  0  0  0  0  0  0  0  0  0
   10.3885   -4.4388   19.2773 C   0  0  0  0  0  0  0  0  0  0  0  0
    4.5160   -9.3822   15.0841 C   0  0  0  0  0  0  0  0  0  0  0  0
  1  3  4  0
  1 24  4  0
  2  6  4  0
  2 15  4  0
  3  5  4  0
  3  6  4  0
  4 21  4  0
  4 29  4  0
  5 15  4  0
  5 28  1  0
  6 16  4  0
  7 18  4  0
  7 26  4  0
  8 18  1  0
  8 19  4  0
  8 22  4  0
  9 12  4  0
  9 19  4  0
 10 12  4  0
 10 22  4  0
 11 20  4  0
 11 21  4  0
 12 23  1  0
 13 20  4  0
 13 29  4  0
 14 17  4  0
 14 28  4  0
 15 25  2  0
 16 27  4  0
 17 18  4  0
 20 27  1  0
 24 27  4  0
 26 28  4  0
M  END
$$$$

 Created by Python create_sdf_string function

 29 33  0  0  0  0  0  0  0  0999 V2000
    8.8270   -7.0288   18.4251 C   0  0  0  0  0  0  0  0  0  0  0  0
    9.1576   -4.6236   15.8860 O   0  0  0  0  0  0  0  0  0  0  0  0
    9.1509   -5.9108   17.7177 C   0  0  0  0  0  0  0  0  0  0  0  0
    3.6373   -9.5349   16.0582 N   0  0  0  0  0  0  0  0  0  0  0  0
    9.9275   -4.8001   18.0438 N   0  0  0  0  0  0  0  0  0  0  0  0
    8.5908   -5.7425   16.4412 C   0  0  0  0  0  0  0  0  0  0  0  0
   10.5993   -4.8981   21.6068 C   0  0  0  0  0  0  0  0  0  0  0  0
   10.4258   -3.0106   23.0998 C   0  0  0  0  0  0  0  0  0  0  0  0
   10.2148   -3.4364   25.4200 C   0  0  0  0  0  0  0  0  0  0  0  0
    9.7853   -1.1840   24.4927 C   0  0  0  0  0  0  0  0  0  0  0  0
    5.0276   -8.5227   17.5352 C   0  0  0  0  0  0  0  0  0  0  0  0
    9.8187   -2.0895   25.5800 C   0  0  0  0  0  0  0  0  0  0  0  0
    5.6473   -8.7216   15.3158 C   0  0  0  0  0  0  0  0  0  0  0  0
   10.7581   -3.1233   19.4720 N   0  0  0  0  0  0  0  0  0  0  0  0
    9.9571   -4.0573   16.8866 C   0  0  0  0  0  0  0  0  0  0  0  0
    7.6213   -6.5618   16.0087 C   0  0  0  0  0  0  0  0  0  0  0  0
   10.8583   -2.6527   20.7222 C   0  0  0  0  0  0  0  0  0  0  0  0
   10.6412   -3.5089   21.7936 C   0  0  0  0  0  0  0  0  0  0  0  0
   10.4972   -3.8968   24.1589 C   0  0  0  0  0  0  0  0  0  0  0  0
    5.9260   -8.2736   16.5517 C   0  0  0  0  0  0  0  0  0  0  0  0
    3.8816   -9.1166   17.2493 C   0  0  0  0  0  0  0  0  0  0  0  0
   10.1297   -1.6575   23.2324 C   0  0  0  0  0  0  0  0  0  0  0  0
    9.4684   -1.6929   26.7263 F   0  0  0  0  0  0  0  0  0  0  0  0
    7.7963   -7.7906   17.9837 C   0  0  0  0  0  0  0  0  0  0  0  0
   10.5884   -3.0725   16.7902 O   0  0  0  0  0  0  0  0  0  0  0  0
   10.4323   -5.3494   20.3516 C   0  0  0  0  0  0  0  0  0  0  0  0
    7.1156   -7.5454   16.8218 C   0  0  0  0  0  0  0  0  0  0  0  0
   10.3885   -4.4388   19.2773 C   0  0  0  0  0  0  0  0  0  0  0  0
    4.5160   -9.3822   15.0841 C   0  0  0  0  0  0  0  0  0  0  0  0
  1  3  4  0
  1 24  4  0
  2  6  4  0
  2 15  4  0
  3  5  4  0
  3  6  4  0
  4 21  4  0
  4 29  4  0
  5 15  4  0
  5 28  1  0
  6 16  4  0
  7 18  4  0
  7 26  4  0
  8 18  1  0
  8 19  4  0
  8 22  4  0
  9 12  4  0
  9 19  4  0
 10 12  4  0
 10 22  4  0
 11 20  4  0
 11 21  4  0
 12 23  1  0
 13 20  4  0
 13 29  4  0
 14 17  4  0
 14 28  4  0
 15 25  2  0
 16 27  4  0
 17 18  4  0
 20 27  1  0
 24 27  4  0
 26 28  4  0
M  END
$$$$

 Created by Python create_sdf_string function

 29 33  0  0  0  0  0  0  0  0999 V2000
    8.8270   -7.0288   18.4251 C   0  0  0  0  0  0  0  0  0  0  0  0
    9.1576   -4.6236   15.8860 O   0  0  0  0  0  0  0  0  0  0  0  0
    9.1509   -5.9108   17.7177 C   0  0  0  0  0  0  0  0  0  0  0  0
    3.6373   -9.5349   16.0582 N   0  0  0  0  0  0  0  0  0  0  0  0
    9.9275   -4.8001   18.0438 N   0  0  0  0  0  0  0  0  0  0  0  0
    8.5908   -5.7425   16.4412 C   0  0  0  0  0  0  0  0  0  0  0  0
   10.5993   -4.8981   21.6068 C   0  0  0  0  0  0  0  0  0  0  0  0
   10.4258   -3.0106   23.0998 C   0  0  0  0  0  0  0  0  0  0  0  0
   10.2148   -3.4364   25.4200 C   0  0  0  0  0  0  0  0  0  0  0  0
    9.7853   -1.1840   24.4927 C   0  0  0  0  0  0  0  0  0  0  0  0
    5.0276   -8.5227   17.5352 C   0  0  0  0  0  0  0  0  0  0  0  0
    9.8187   -2.0895   25.5800 C   0  0  0  0  0  0  0  0  0  0  0  0
    5.6473   -8.7216   15.3158 C   0  0  0  0  0  0  0  0  0  0  0  0
   10.7581   -3.1233   19.4720 N   0  0  0  0  0  0  0  0  0  0  0  0
    9.9571   -4.0573   16.8866 C   0  0  0  0  0  0  0  0  0  0  0  0
    7.6213   -6.5618   16.0087 C   0  0  0  0  0  0  0  0  0  0  0  0
   10.8583   -2.6527   20.7222 C   0  0  0  0  0  0  0  0  0  0  0  0
   10.6412   -3.5089   21.7936 C   0  0  0  0  0  0  0  0  0  0  0  0
   10.4972   -3.8968   24.1589 C   0  0  0  0  0  0  0  0  0  0  0  0
    5.9260   -8.2736   16.5517 C   0  0  0  0  0  0  0  0  0  0  0  0
    3.8816   -9.1166   17.2493 C   0  0  0  0  0  0  0  0  0  0  0  0
   10.1297   -1.6575   23.2324 C   0  0  0  0  0  0  0  0  0  0  0  0
    9.4684   -1.6929   26.7263 F   0  0  0  0  0  0  0  0  0  0  0  0
    7.7963   -7.7906   17.9837 C   0  0  0  0  0  0  0  0  0  0  0  0
   10.5884   -3.0725   16.7902 O   0  0  0  0  0  0  0  0  0  0  0  0
   10.4323   -5.3494   20.3516 C   0  0  0  0  0  0  0  0  0  0  0  0
    7.1156   -7.5454   16.8218 C   0  0  0  0  0  0  0  0  0  0  0  0
   10.3885   -4.4388   19.2773 C   0  0  0  0  0  0  0  0  0  0  0  0
    4.5160   -9.3822   15.0841 C   0  0  0  0  0  0  0  0  0  0  0  0
  1  3  4  0
  1 24  4  0
  2  6  4  0
  2 15  4  0
  3  5  4  0
  3  6  4  0
  4 21  4  0
  4 29  4  0
  5 15  4  0
  5 28  1  0
  6 16  4  0
  7 18  4  0
  7 26  4  0
  8 18  1  0
  8 19  4  0
  8 22  4  0
  9 12  4  0
  9 19  4  0
 10 12  4  0
 10 22  4  0
 11 20  4  0
 11 21  4  0
 12 23  1  0
 13 20  4  0
 13 29  4  0
 14 17  4  0
 14 28  4  0
 15 25  2  0
 16 27  4  0
 17 18  4  0
 20 27  1  0
 24 27  4  0
 26 28  4  0
M  END
$$$$

 Created by Python create_sdf_string function

 29 33  0  0  0  0  0  0  0  0999 V2000
    8.8270   -7.0288   18.4251 C   0  0  0  0  0  0  0  0  0  0  0  0
    9.1576   -4.6236   15.8860 O   0  0  0  0  0  0  0  0  0  0  0  0
    9.1509   -5.9108   17.7177 C   0  0  0  0  0  0  0  0  0  0  0  0
    3.6373   -9.5349   16.0582 N   0  0  0  0  0  0  0  0  0  0  0  0
    9.9275   -4.8001   18.0438 N   0  0  0  0  0  0  0  0  0  0  0  0
    8.5908   -5.7425   16.4412 C   0  0  0  0  0  0  0  0  0  0  0  0
   10.5993   -4.8981   21.6068 C   0  0  0  0  0  0  0  0  0  0  0  0
   10.4258   -3.0106   23.0998 C   0  0  0  0  0  0  0  0  0  0  0  0
   10.2148   -3.4364   25.4200 C   0  0  0  0  0  0  0  0  0  0  0  0
    9.7853   -1.1840   24.4927 C   0  0  0  0  0  0  0  0  0  0  0  0
    5.0276   -8.5227   17.5352 C   0  0  0  0  0  0  0  0  0  0  0  0
    9.8187   -2.0895   25.5800 C   0  0  0  0  0  0  0  0  0  0  0  0
    5.6473   -8.7216   15.3158 C   0  0  0  0  0  0  0  0  0  0  0  0
   10.7581   -3.1233   19.4720 N   0  0  0  0  0  0  0  0  0  0  0  0
    9.9571   -4.0573   16.8866 C   0  0  0  0  0  0  0  0  0  0  0  0
    7.6213   -6.5618   16.0087 C   0  0  0  0  0  0  0  0  0  0  0  0
   10.8583   -2.6527   20.7222 C   0  0  0  0  0  0  0  0  0  0  0  0
   10.6412   -3.5089   21.7936 C   0  0  0  0  0  0  0  0  0  0  0  0
   10.4972   -3.8968   24.1589 C   0  0  0  0  0  0  0  0  0  0  0  0
    5.9260   -8.2736   16.5517 C   0  0  0  0  0  0  0  0  0  0  0  0
    3.8816   -9.1166   17.2493 C   0  0  0  0  0  0  0  0  0  0  0  0
   10.1297   -1.6575   23.2324 C   0  0  0  0  0  0  0  0  0  0  0  0
    9.4684   -1.6929   26.7263 F   0  0  0  0  0  0  0  0  0  0  0  0
    7.7963   -7.7906   17.9837 C   0  0  0  0  0  0  0  0  0  0  0  0
   10.5884   -3.0725   16.7902 O   0  0  0  0  0  0  0  0  0  0  0  0
   10.4323   -5.3494   20.3516 C   0  0  0  0  0  0  0  0  0  0  0  0
    7.1156   -7.5454   16.8218 C   0  0  0  0  0  0  0  0  0  0  0  0
   10.3885   -4.4388   19.2773 C   0  0  0  0  0  0  0  0  0  0  0  0
    4.5160   -9.3822   15.0841 C   0  0  0  0  0  0  0  0  0  0  0  0
  1  3  4  0
  1 24  4  0
  2  6  4  0
  2 15  4  0
  3  5  4  0
  3  6  4  0
  4 21  4  0
  4 29  4  0
  5 15  4  0
  5 28  1  0
  6 16  4  0
  7 18  4  0
  7 26  4  0
  8 18  1  0
  8 19  4  0
  8 22  4  0
  9 12  4  0
  9 19  4  0
 10 12  4  0
 10 22  4  0
 11 20  4  0
 11 21  4  0
 12 23  1  0
 13 20  4  0
 13 29  4  0
 14 17  4  0
 14 28  4  0
 15 25  2  0
 16 27  4  0
 17 18  4  0
 20 27  1  0
 24 27  4  0
 26 28  4  0
M  END
$$$$

 Created by Python create_sdf_string function

 29 33  0  0  0  0  0  0  0  0999 V2000
    8.8270   -7.0288   18.4251 C   0  0  0  0  0  0  0  0  0  0  0  0
    9.1576   -4.6236   15.8860 O   0  0  0  0  0  0  0  0  0  0  0  0
    9.1509   -5.9108   17.7177 C   0  0  0  0  0  0  0  0  0  0  0  0
    3.6373   -9.5349   16.0582 N   0  0  0  0  0  0  0  0  0  0  0  0
    9.9275   -4.8001   18.0438 N   0  0  0  0  0  0  0  0  0  0  0  0
    8.5908   -5.7425   16.4412 C   0  0  0  0  0  0  0  0  0  0  0  0
   10.5993   -4.8981   21.6068 C   0  0  0  0  0  0  0  0  0  0  0  0
   10.4258   -3.0106   23.0998 C   0  0  0  0  0  0  0  0  0  0  0  0
   10.2148   -3.4364   25.4200 C   0  0  0  0  0  0  0  0  0  0  0  0
    9.7853   -1.1840   24.4927 C   0  0  0  0  0  0  0  0  0  0  0  0
    5.0276   -8.5227   17.5352 C   0  0  0  0  0  0  0  0  0  0  0  0
    9.8187   -2.0895   25.5800 C   0  0  0  0  0  0  0  0  0  0  0  0
    5.6473   -8.7216   15.3158 C   0  0  0  0  0  0  0  0  0  0  0  0
   10.7581   -3.1233   19.4720 N   0  0  0  0  0  0  0  0  0  0  0  0
    9.9571   -4.0573   16.8866 C   0  0  0  0  0  0  0  0  0  0  0  0
    7.6213   -6.5618   16.0087 C   0  0  0  0  0  0  0  0  0  0  0  0
   10.8583   -2.6527   20.7222 C   0  0  0  0  0  0  0  0  0  0  0  0
   10.6412   -3.5089   21.7936 C   0  0  0  0  0  0  0  0  0  0  0  0
   10.4972   -3.8968   24.1589 C   0  0  0  0  0  0  0  0  0  0  0  0
    5.9260   -8.2736   16.5517 C   0  0  0  0  0  0  0  0  0  0  0  0
    3.8816   -9.1166   17.2493 C   0  0  0  0  0  0  0  0  0  0  0  0
   10.1297   -1.6575   23.2324 C   0  0  0  0  0  0  0  0  0  0  0  0
    9.4684   -1.6929   26.7263 F   0  0  0  0  0  0  0  0  0  0  0  0
    7.7963   -7.7906   17.9837 C   0  0  0  0  0  0  0  0  0  0  0  0
   10.5884   -3.0725   16.7902 O   0  0  0  0  0  0  0  0  0  0  0  0
   10.4323   -5.3494   20.3516 C   0  0  0  0  0  0  0  0  0  0  0  0
    7.1156   -7.5454   16.8218 C   0  0  0  0  0  0  0  0  0  0  0  0
   10.3885   -4.4388   19.2773 C   0  0  0  0  0  0  0  0  0  0  0  0
    4.5160   -9.3822   15.0841 C   0  0  0  0  0  0  0  0  0  0  0  0
  1  3  4  0
  1 24  4  0
  2  6  4  0
  2 15  4  0
  3  5  4  0
  3  6  4  0
  4 21  4  0
  4 29  4  0
  5 15  4  0
  5 28  1  0
  6 16  4  0
  7 18  4  0
  7 26  4  0
  8 18  1  0
  8 19  4  0
  8 22  4  0
  9 12  4  0
  9 19  4  0
 10 12  4  0
 10 22  4  0
 11 20  4  0
 11 21  4  0
 12 23  1  0
 13 20  4  0
 13 29  4  0
 14 17  4  0
 14 28  4  0
 15 25  2  0
 16 27  4  0
 17 18  4  0
 20 27  1  0
 24 27  4  0
 26 28  4  0
M  END
$$$$

 Created by Python create_sdf_string function

 29 33  0  0  0  0  0  0  0  0999 V2000
    8.8270   -7.0288   18.4251 C   0  0  0  0  0  0  0  0  0  0  0  0
    9.1576   -4.6236   15.8860 O   0  0  0  0  0  0  0  0  0  0  0  0
    9.1509   -5.9108   17.7177 C   0  0  0  0  0  0  0  0  0  0  0  0
    3.6373   -9.5349   16.0582 N   0  0  0  0  0  0  0  0  0  0  0  0
    9.9275   -4.8001   18.0438 N   0  0  0  0  0  0  0  0  0  0  0  0
    8.5908   -5.7425   16.4412 C   0  0  0  0  0  0  0  0  0  0  0  0
   10.5993   -4.8981   21.6068 C   0  0  0  0  0  0  0  0  0  0  0  0
   10.4258   -3.0106   23.0998 C   0  0  0  0  0  0  0  0  0  0  0  0
   10.2148   -3.4364   25.4200 C   0  0  0  0  0  0  0  0  0  0  0  0
    9.7853   -1.1840   24.4927 C   0  0  0  0  0  0  0  0  0  0  0  0
    5.0276   -8.5227   17.5352 C   0  0  0  0  0  0  0  0  0  0  0  0
    9.8187   -2.0895   25.5800 C   0  0  0  0  0  0  0  0  0  0  0  0
    5.6473   -8.7216   15.3158 C   0  0  0  0  0  0  0  0  0  0  0  0
   10.7581   -3.1233   19.4720 N   0  0  0  0  0  0  0  0  0  0  0  0
    9.9571   -4.0573   16.8866 C   0  0  0  0  0  0  0  0  0  0  0  0
    7.6213   -6.5618   16.0087 C   0  0  0  0  0  0  0  0  0  0  0  0
   10.8583   -2.6527   20.7222 C   0  0  0  0  0  0  0  0  0  0  0  0
   10.6412   -3.5089   21.7936 C   0  0  0  0  0  0  0  0  0  0  0  0
   10.4972   -3.8968   24.1589 C   0  0  0  0  0  0  0  0  0  0  0  0
    5.9260   -8.2736   16.5517 C   0  0  0  0  0  0  0  0  0  0  0  0
    3.8816   -9.1166   17.2493 C   0  0  0  0  0  0  0  0  0  0  0  0
   10.1297   -1.6575   23.2324 C   0  0  0  0  0  0  0  0  0  0  0  0
    9.4684   -1.6929   26.7263 F   0  0  0  0  0  0  0  0  0  0  0  0
    7.7963   -7.7906   17.9837 C   0  0  0  0  0  0  0  0  0  0  0  0
   10.5884   -3.0725   16.7902 O   0  0  0  0  0  0  0  0  0  0  0  0
   10.4323   -5.3494   20.3516 C   0  0  0  0  0  0  0  0  0  0  0  0
    7.1156   -7.5454   16.8218 C   0  0  0  0  0  0  0  0  0  0  0  0
   10.3885   -4.4388   19.2773 C   0  0  0  0  0  0  0  0  0  0  0  0
    4.5160   -9.3822   15.0841 C   0  0  0  0  0  0  0  0  0  0  0  0
  1  3  4  0
  1 24  4  0
  2  6  4  0
  2 15  4  0
  3  5  4  0
  3  6  4  0
  4 21  4  0
  4 29  4  0
  5 15  4  0
  5 28  1  0
  6 16  4  0
  7 18  4  0
  7 26  4  0
  8 18  1  0
  8 19  4  0
  8 22  4  0
  9 12  4  0
  9 19  4  0
 10 12  4  0
 10 22  4  0
 11 20  4  0
 11 21  4  0
 12 23  1  0
 13 20  4  0
 13 29  4  0
 14 17  4  0
 14 28  4  0
 15 25  2  0
 16 27  4  0
 17 18  4  0
 20 27  1  0
 24 27  4  0
 26 28  4  0
M  END
$$$$

 Created by Python create_sdf_string function

 29 33  0  0  0  0  0  0  0  0999 V2000
    8.8270   -7.0288   18.4251 C   0  0  0  0  0  0  0  0  0  0  0  0
    9.1576   -4.6236   15.8860 O   0  0  0  0  0  0  0  0  0  0  0  0
    9.1509   -5.9108   17.7177 C   0  0  0  0  0  0  0  0  0  0  0  0
    3.6373   -9.5349   16.0582 N   0  0  0  0  0  0  0  0  0  0  0  0
    9.9275   -4.8001   18.0438 N   0  0  0  0  0  0  0  0  0  0  0  0
    8.5908   -5.7425   16.4412 C   0  0  0  0  0  0  0  0  0  0  0  0
   10.5993   -4.8981   21.6068 C   0  0  0  0  0  0  0  0  0  0  0  0
   10.4258   -3.0106   23.0998 C   0  0  0  0  0  0  0  0  0  0  0  0
   10.2148   -3.4364   25.4200 C   0  0  0  0  0  0  0  0  0  0  0  0
    9.7853   -1.1840   24.4927 C   0  0  0  0  0  0  0  0  0  0  0  0
    5.0276   -8.5227   17.5352 C   0  0  0  0  0  0  0  0  0  0  0  0
    9.8187   -2.0895   25.5800 C   0  0  0  0  0  0  0  0  0  0  0  0
    5.6473   -8.7216   15.3158 C   0  0  0  0  0  0  0  0  0  0  0  0
   10.7581   -3.1233   19.4720 N   0  0  0  0  0  0  0  0  0  0  0  0
    9.9571   -4.0573   16.8866 C   0  0  0  0  0  0  0  0  0  0  0  0
    7.6213   -6.5618   16.0087 C   0  0  0  0  0  0  0  0  0  0  0  0
   10.8583   -2.6527   20.7222 C   0  0  0  0  0  0  0  0  0  0  0  0
   10.6412   -3.5089   21.7936 C   0  0  0  0  0  0  0  0  0  0  0  0
   10.4972   -3.8968   24.1589 C   0  0  0  0  0  0  0  0  0  0  0  0
    5.9260   -8.2736   16.5517 C   0  0  0  0  0  0  0  0  0  0  0  0
    3.8816   -9.1166   17.2493 C   0  0  0  0  0  0  0  0  0  0  0  0
   10.1297   -1.6575   23.2324 C   0  0  0  0  0  0  0  0  0  0  0  0
    9.4684   -1.6929   26.7263 F   0  0  0  0  0  0  0  0  0  0  0  0
    7.7963   -7.7906   17.9837 C   0  0  0  0  0  0  0  0  0  0  0  0
   10.5884   -3.0725   16.7902 O   0  0  0  0  0  0  0  0  0  0  0  0
   10.4323   -5.3494   20.3516 C   0  0  0  0  0  0  0  0  0  0  0  0
    7.1156   -7.5454   16.8218 C   0  0  0  0  0  0  0  0  0  0  0  0
   10.3885   -4.4388   19.2773 C   0  0  0  0  0  0  0  0  0  0  0  0
    4.5160   -9.3822   15.0841 C   0  0  0  0  0  0  0  0  0  0  0  0
  1  3  4  0
  1 24  4  0
  2  6  4  0
  2 15  4  0
  3  5  4  0
  3  6  4  0
  4 21  4  0
  4 29  4  0
  5 15  4  0
  5 28  1  0
  6 16  4  0
  7 18  4  0
  7 26  4  0
  8 18  1  0
  8 19  4  0
  8 22  4  0
  9 12  4  0
  9 19  4  0
 10 12  4  0
 10 22  4  0
 11 20  4  0
 11 21  4  0
 12 23  1  0
 13 20  4  0
 13 29  4  0
 14 17  4  0
 14 28  4  0
 15 25  2  0
 16 27  4  0
 17 18  4  0
 20 27  1  0
 24 27  4  0
 26 28  4  0
M  END
$$$$

 Created by Python create_sdf_string function

 29 33  0  0  0  0  0  0  0  0999 V2000
    8.8270   -7.0288   18.4251 C   0  0  0  0  0  0  0  0  0  0  0  0
    9.1576   -4.6236   15.8860 O   0  0  0  0  0  0  0  0  0  0  0  0
    9.1509   -5.9108   17.7177 C   0  0  0  0  0  0  0  0  0  0  0  0
    3.6373   -9.5349   16.0582 N   0  0  0  0  0  0  0  0  0  0  0  0
    9.9275   -4.8001   18.0438 N   0  0  0  0  0  0  0  0  0  0  0  0
    8.5908   -5.7425   16.4412 C   0  0  0  0  0  0  0  0  0  0  0  0
   10.5993   -4.8981   21.6068 C   0  0  0  0  0  0  0  0  0  0  0  0
   10.4258   -3.0106   23.0998 C   0  0  0  0  0  0  0  0  0  0  0  0
   10.2148   -3.4364   25.4200 C   0  0  0  0  0  0  0  0  0  0  0  0
    9.7853   -1.1840   24.4927 C   0  0  0  0  0  0  0  0  0  0  0  0
    5.0276   -8.5227   17.5352 C   0  0  0  0  0  0  0  0  0  0  0  0
    9.8187   -2.0895   25.5800 C   0  0  0  0  0  0  0  0  0  0  0  0
    5.6473   -8.7216   15.3158 C   0  0  0  0  0  0  0  0  0  0  0  0
   10.7581   -3.1233   19.4720 N   0  0  0  0  0  0  0  0  0  0  0  0
    9.9571   -4.0573   16.8866 C   0  0  0  0  0  0  0  0  0  0  0  0
    7.6213   -6.5618   16.0087 C   0  0  0  0  0  0  0  0  0  0  0  0
   10.8583   -2.6527   20.7222 C   0  0  0  0  0  0  0  0  0  0  0  0
   10.6412   -3.5089   21.7936 C   0  0  0  0  0  0  0  0  0  0  0  0
   10.4972   -3.8968   24.1589 C   0  0  0  0  0  0  0  0  0  0  0  0
    5.9260   -8.2736   16.5517 C   0  0  0  0  0  0  0  0  0  0  0  0
    3.8816   -9.1166   17.2493 C   0  0  0  0  0  0  0  0  0  0  0  0
   10.1297   -1.6575   23.2324 C   0  0  0  0  0  0  0  0  0  0  0  0
    9.4684   -1.6929   26.7263 F   0  0  0  0  0  0  0  0  0  0  0  0
    7.7963   -7.7906   17.9837 C   0  0  0  0  0  0  0  0  0  0  0  0
   10.5884   -3.0725   16.7902 O   0  0  0  0  0  0  0  0  0  0  0  0
   10.4323   -5.3494   20.3516 C   0  0  0  0  0  0  0  0  0  0  0  0
    7.1156   -7.5454   16.8218 C   0  0  0  0  0  0  0  0  0  0  0  0
   10.3885   -4.4388   19.2773 C   0  0  0  0  0  0  0  0  0  0  0  0
    4.5160   -9.3822   15.0841 C   0  0  0  0  0  0  0  0  0  0  0  0
  1  3  4  0
  1 24  4  0
  2  6  4  0
  2 15  4  0
  3  5  4  0
  3  6  4  0
  4 21  4  0
  4 29  4  0
  5 15  4  0
  5 28  1  0
  6 16  4  0
  7 18  4  0
  7 26  4  0
  8 18  1  0
  8 19  4  0
  8 22  4  0
  9 12  4  0
  9 19  4  0
 10 12  4  0
 10 22  4  0
 11 20  4  0
 11 21  4  0
 12 23  1  0
 13 20  4  0
 13 29  4  0
 14 17  4  0
 14 28  4  0
 15 25  2  0
 16 27  4  0
 17 18  4  0
 20 27  1  0
 24 27  4  0
 26 28  4  0
M  END
$$$$

 Created by Python create_sdf_string function

 29 33  0  0  0  0  0  0  0  0999 V2000
    8.8270   -7.0288   18.4251 C   0  0  0  0  0  0  0  0  0  0  0  0
    9.1576   -4.6236   15.8860 O   0  0  0  0  0  0  0  0  0  0  0  0
    9.1509   -5.9108   17.7177 C   0  0  0  0  0  0  0  0  0  0  0  0
    3.6373   -9.5349   16.0582 N   0  0  0  0  0  0  0  0  0  0  0  0
    9.9275   -4.8001   18.0438 N   0  0  0  0  0  0  0  0  0  0  0  0
    8.5908   -5.7425   16.4412 C   0  0  0  0  0  0  0  0  0  0  0  0
   10.5993   -4.8981   21.6068 C   0  0  0  0  0  0  0  0  0  0  0  0
   10.4258   -3.0106   23.0998 C   0  0  0  0  0  0  0  0  0  0  0  0
   10.2148   -3.4364   25.4200 C   0  0  0  0  0  0  0  0  0  0  0  0
    9.7853   -1.1840   24.4927 C   0  0  0  0  0  0  0  0  0  0  0  0
    5.0276   -8.5227   17.5352 C   0  0  0  0  0  0  0  0  0  0  0  0
    9.8187   -2.0895   25.5800 C   0  0  0  0  0  0  0  0  0  0  0  0
    5.6473   -8.7216   15.3158 C   0  0  0  0  0  0  0  0  0  0  0  0
   10.7581   -3.1233   19.4720 N   0  0  0  0  0  0  0  0  0  0  0  0
    9.9571   -4.0573   16.8866 C   0  0  0  0  0  0  0  0  0  0  0  0
    7.6213   -6.5618   16.0087 C   0  0  0  0  0  0  0  0  0  0  0  0
   10.8583   -2.6527   20.7222 C   0  0  0  0  0  0  0  0  0  0  0  0
   10.6412   -3.5089   21.7936 C   0  0  0  0  0  0  0  0  0  0  0  0
   10.4972   -3.8968   24.1589 C   0  0  0  0  0  0  0  0  0  0  0  0
    5.9260   -8.2736   16.5517 C   0  0  0  0  0  0  0  0  0  0  0  0
    3.8816   -9.1166   17.2493 C   0  0  0  0  0  0  0  0  0  0  0  0
   10.1297   -1.6575   23.2324 C   0  0  0  0  0  0  0  0  0  0  0  0
    9.4684   -1.6929   26.7263 F   0  0  0  0  0  0  0  0  0  0  0  0
    7.7963   -7.7906   17.9837 C   0  0  0  0  0  0  0  0  0  0  0  0
   10.5884   -3.0725   16.7902 O   0  0  0  0  0  0  0  0  0  0  0  0
   10.4323   -5.3494   20.3516 C   0  0  0  0  0  0  0  0  0  0  0  0
    7.1156   -7.5454   16.8218 C   0  0  0  0  0  0  0  0  0  0  0  0
   10.3885   -4.4388   19.2773 C   0  0  0  0  0  0  0  0  0  0  0  0
    4.5160   -9.3822   15.0841 C   0  0  0  0  0  0  0  0  0  0  0  0
  1  3  4  0
  1 24  4  0
  2  6  4  0
  2 15  4  0
  3  5  4  0
  3  6  4  0
  4 21  4  0
  4 29  4  0
  5 15  4  0
  5 28  1  0
  6 16  4  0
  7 18  4  0
  7 26  4  0
  8 18  1  0
  8 19  4  0
  8 22  4  0
  9 12  4  0
  9 19  4  0
 10 12  4  0
 10 22  4  0
 11 20  4  0
 11 21  4  0
 12 23  1  0
 13 20  4  0
 13 29  4  0
 14 17  4  0
 14 28  4  0
 15 25  2  0
 16 27  4  0
 17 18  4  0
 20 27  1  0
 24 27  4  0
 26 28  4  0
M  END
$$$$

 Created by Python create_sdf_string function

 29 33  0  0  0  0  0  0  0  0999 V2000
    8.8270   -7.0288   18.4251 C   0  0  0  0  0  0  0  0  0  0  0  0
    9.1576   -4.6236   15.8860 O   0  0  0  0  0  0  0  0  0  0  0  0
    9.1509   -5.9108   17.7177 C   0  0  0  0  0  0  0  0  0  0  0  0
    3.6373   -9.5349   16.0582 N   0  0  0  0  0  0  0  0  0  0  0  0
    9.9275   -4.8001   18.0438 N   0  0  0  0  0  0  0  0  0  0  0  0
    8.5908   -5.7425   16.4412 C   0  0  0  0  0  0  0  0  0  0  0  0
   10.5993   -4.8981   21.6068 C   0  0  0  0  0  0  0  0  0  0  0  0
   10.4258   -3.0106   23.0998 C   0  0  0  0  0  0  0  0  0  0  0  0
   10.2148   -3.4364   25.4200 C   0  0  0  0  0  0  0  0  0  0  0  0
    9.7853   -1.1840   24.4927 C   0  0  0  0  0  0  0  0  0  0  0  0
    5.0276   -8.5227   17.5352 C   0  0  0  0  0  0  0  0  0  0  0  0
    9.8187   -2.0895   25.5800 C   0  0  0  0  0  0  0  0  0  0  0  0
    5.6473   -8.7216   15.3158 C   0  0  0  0  0  0  0  0  0  0  0  0
   10.7581   -3.1233   19.4720 N   0  0  0  0  0  0  0  0  0  0  0  0
    9.9571   -4.0573   16.8866 C   0  0  0  0  0  0  0  0  0  0  0  0
    7.6213   -6.5618   16.0087 C   0  0  0  0  0  0  0  0  0  0  0  0
   10.8583   -2.6527   20.7222 C   0  0  0  0  0  0  0  0  0  0  0  0
   10.6412   -3.5089   21.7936 C   0  0  0  0  0  0  0  0  0  0  0  0
   10.4972   -3.8968   24.1589 C   0  0  0  0  0  0  0  0  0  0  0  0
    5.9260   -8.2736   16.5517 C   0  0  0  0  0  0  0  0  0  0  0  0
    3.8816   -9.1166   17.2493 C   0  0  0  0  0  0  0  0  0  0  0  0
   10.1297   -1.6575   23.2324 C   0  0  0  0  0  0  0  0  0  0  0  0
    9.4684   -1.6929   26.7263 F   0  0  0  0  0  0  0  0  0  0  0  0
    7.7963   -7.7906   17.9837 C   0  0  0  0  0  0  0  0  0  0  0  0
   10.5884   -3.0725   16.7902 O   0  0  0  0  0  0  0  0  0  0  0  0
   10.4323   -5.3494   20.3516 C   0  0  0  0  0  0  0  0  0  0  0  0
    7.1156   -7.5454   16.8218 C   0  0  0  0  0  0  0  0  0  0  0  0
   10.3885   -4.4388   19.2773 C   0  0  0  0  0  0  0  0  0  0  0  0
    4.5160   -9.3822   15.0841 C   0  0  0  0  0  0  0  0  0  0  0  0
  1  3  4  0
  1 24  4  0
  2  6  4  0
  2 15  4  0
  3  5  4  0
  3  6  4  0
  4 21  4  0
  4 29  4  0
  5 15  4  0
  5 28  1  0
  6 16  4  0
  7 18  4  0
  7 26  4  0
  8 18  1  0
  8 19  4  0
  8 22  4  0
  9 12  4  0
  9 19  4  0
 10 12  4  0
 10 22  4  0
 11 20  4  0
 11 21  4  0
 12 23  1  0
 13 20  4  0
 13 29  4  0
 14 17  4  0
 14 28  4  0
 15 25  2  0
 16 27  4  0
 17 18  4  0
 20 27  1  0
 24 27  4  0
 26 28  4  0
M  END
$$$$

 Created by Python create_sdf_string function

 29 33  0  0  0  0  0  0  0  0999 V2000
    8.8270   -7.0288   18.4251 C   0  0  0  0  0  0  0  0  0  0  0  0
    9.1576   -4.6236   15.8860 O   0  0  0  0  0  0  0  0  0  0  0  0
    9.1509   -5.9108   17.7177 C   0  0  0  0  0  0  0  0  0  0  0  0
    3.6373   -9.5349   16.0582 N   0  0  0  0  0  0  0  0  0  0  0  0
    9.9275   -4.8001   18.0438 N   0  0  0  0  0  0  0  0  0  0  0  0
    8.5908   -5.7425   16.4412 C   0  0  0  0  0  0  0  0  0  0  0  0
   10.5993   -4.8981   21.6068 C   0  0  0  0  0  0  0  0  0  0  0  0
   10.4258   -3.0106   23.0998 C   0  0  0  0  0  0  0  0  0  0  0  0
   10.2148   -3.4364   25.4200 C   0  0  0  0  0  0  0  0  0  0  0  0
    9.7853   -1.1840   24.4927 C   0  0  0  0  0  0  0  0  0  0  0  0
    5.0276   -8.5227   17.5352 C   0  0  0  0  0  0  0  0  0  0  0  0
    9.8187   -2.0895   25.5800 C   0  0  0  0  0  0  0  0  0  0  0  0
    5.6473   -8.7216   15.3158 C   0  0  0  0  0  0  0  0  0  0  0  0
   10.7581   -3.1233   19.4720 N   0  0  0  0  0  0  0  0  0  0  0  0
    9.9571   -4.0573   16.8866 C   0  0  0  0  0  0  0  0  0  0  0  0
    7.6213   -6.5618   16.0087 C   0  0  0  0  0  0  0  0  0  0  0  0
   10.8583   -2.6527   20.7222 C   0  0  0  0  0  0  0  0  0  0  0  0
   10.6412   -3.5089   21.7936 C   0  0  0  0  0  0  0  0  0  0  0  0
   10.4972   -3.8968   24.1589 C   0  0  0  0  0  0  0  0  0  0  0  0
    5.9260   -8.2736   16.5517 C   0  0  0  0  0  0  0  0  0  0  0  0
    3.8816   -9.1166   17.2493 C   0  0  0  0  0  0  0  0  0  0  0  0
   10.1297   -1.6575   23.2324 C   0  0  0  0  0  0  0  0  0  0  0  0
    9.4684   -1.6929   26.7263 F   0  0  0  0  0  0  0  0  0  0  0  0
    7.7963   -7.7906   17.9837 C   0  0  0  0  0  0  0  0  0  0  0  0
   10.5884   -3.0725   16.7902 O   0  0  0  0  0  0  0  0  0  0  0  0
   10.4323   -5.3494   20.3516 C   0  0  0  0  0  0  0  0  0  0  0  0
    7.1156   -7.5454   16.8218 C   0  0  0  0  0  0  0  0  0  0  0  0
   10.3885   -4.4388   19.2773 C   0  0  0  0  0  0  0  0  0  0  0  0
    4.5160   -9.3822   15.0841 C   0  0  0  0  0  0  0  0  0  0  0  0
  1  3  4  0
  1 24  4  0
  2  6  4  0
  2 15  4  0
  3  5  4  0
  3  6  4  0
  4 21  4  0
  4 29  4  0
  5 15  4  0
  5 28  1  0
  6 16  4  0
  7 18  4  0
  7 26  4  0
  8 18  1  0
  8 19  4  0
  8 22  4  0
  9 12  4  0
  9 19  4  0
 10 12  4  0
 10 22  4  0
 11 20  4  0
 11 21  4  0
 12 23  1  0
 13 20  4  0
 13 29  4  0
 14 17  4  0
 14 28  4  0
 15 25  2  0
 16 27  4  0
 17 18  4  0
 20 27  1  0
 24 27  4  0
 26 28  4  0
M  END
$$$$

 Created by Python create_sdf_string function

 29 33  0  0  0  0  0  0  0  0999 V2000
    8.8270   -7.0288   18.4251 C   0  0  0  0  0  0  0  0  0  0  0  0
    9.1576   -4.6236   15.8860 O   0  0  0  0  0  0  0  0  0  0  0  0
    9.1509   -5.9108   17.7177 C   0  0  0  0  0  0  0  0  0  0  0  0
    3.6373   -9.5349   16.0582 N   0  0  0  0  0  0  0  0  0  0  0  0
    9.9275   -4.8001   18.0438 N   0  0  0  0  0  0  0  0  0  0  0  0
    8.5908   -5.7425   16.4412 C   0  0  0  0  0  0  0  0  0  0  0  0
   10.5993   -4.8981   21.6068 C   0  0  0  0  0  0  0  0  0  0  0  0
   10.4258   -3.0106   23.0998 C   0  0  0  0  0  0  0  0  0  0  0  0
   10.2148   -3.4364   25.4200 C   0  0  0  0  0  0  0  0  0  0  0  0
    9.7853   -1.1840   24.4927 C   0  0  0  0  0  0  0  0  0  0  0  0
    5.0276   -8.5227   17.5352 C   0  0  0  0  0  0  0  0  0  0  0  0
    9.8187   -2.0895   25.5800 C   0  0  0  0  0  0  0  0  0  0  0  0
    5.6473   -8.7216   15.3158 C   0  0  0  0  0  0  0  0  0  0  0  0
   10.7581   -3.1233   19.4720 N   0  0  0  0  0  0  0  0  0  0  0  0
    9.9571   -4.0573   16.8866 C   0  0  0  0  0  0  0  0  0  0  0  0
    7.6213   -6.5618   16.0087 C   0  0  0  0  0  0  0  0  0  0  0  0
   10.8583   -2.6527   20.7222 C   0  0  0  0  0  0  0  0  0  0  0  0
   10.6412   -3.5089   21.7936 C   0  0  0  0  0  0  0  0  0  0  0  0
   10.4972   -3.8968   24.1589 C   0  0  0  0  0  0  0  0  0  0  0  0
    5.9260   -8.2736   16.5517 C   0  0  0  0  0  0  0  0  0  0  0  0
    3.8816   -9.1166   17.2493 C   0  0  0  0  0  0  0  0  0  0  0  0
   10.1297   -1.6575   23.2324 C   0  0  0  0  0  0  0  0  0  0  0  0
    9.4684   -1.6929   26.7263 F   0  0  0  0  0  0  0  0  0  0  0  0
    7.7963   -7.7906   17.9837 C   0  0  0  0  0  0  0  0  0  0  0  0
   10.5884   -3.0725   16.7902 O   0  0  0  0  0  0  0  0  0  0  0  0
   10.4323   -5.3494   20.3516 C   0  0  0  0  0  0  0  0  0  0  0  0
    7.1156   -7.5454   16.8218 C   0  0  0  0  0  0  0  0  0  0  0  0
   10.3885   -4.4388   19.2773 C   0  0  0  0  0  0  0  0  0  0  0  0
    4.5160   -9.3822   15.0841 C   0  0  0  0  0  0  0  0  0  0  0  0
  1  3  4  0
  1 24  4  0
  2  6  4  0
  2 15  4  0
  3  5  4  0
  3  6  4  0
  4 21  4  0
  4 29  4  0
  5 15  4  0
  5 28  1  0
  6 16  4  0
  7 18  4  0
  7 26  4  0
  8 18  1  0
  8 19  4  0
  8 22  4  0
  9 12  4  0
  9 19  4  0
 10 12  4  0
 10 22  4  0
 11 20  4  0
 11 21  4  0
 12 23  1  0
 13 20  4  0
 13 29  4  0
 14 17  4  0
 14 28  4  0
 15 25  2  0
 16 27  4  0
 17 18  4  0
 20 27  1  0
 24 27  4  0
 26 28  4  0
M  END
$$$$

 Created by Python create_sdf_string function

 29 33  0  0  0  0  0  0  0  0999 V2000
    8.8270   -7.0288   18.4251 C   0  0  0  0  0  0  0  0  0  0  0  0
    9.1576   -4.6236   15.8860 O   0  0  0  0  0  0  0  0  0  0  0  0
    9.1509   -5.9108   17.7177 C   0  0  0  0  0  0  0  0  0  0  0  0
    3.6373   -9.5349   16.0582 N   0  0  0  0  0  0  0  0  0  0  0  0
    9.9275   -4.8001   18.0438 N   0  0  0  0  0  0  0  0  0  0  0  0
    8.5908   -5.7425   16.4412 C   0  0  0  0  0  0  0  0  0  0  0  0
   10.5993   -4.8981   21.6068 C   0  0  0  0  0  0  0  0  0  0  0  0
   10.4258   -3.0106   23.0998 C   0  0  0  0  0  0  0  0  0  0  0  0
   10.2148   -3.4364   25.4200 C   0  0  0  0  0  0  0  0  0  0  0  0
    9.7853   -1.1840   24.4927 C   0  0  0  0  0  0  0  0  0  0  0  0
    5.0276   -8.5227   17.5352 C   0  0  0  0  0  0  0  0  0  0  0  0
    9.8187   -2.0895   25.5800 C   0  0  0  0  0  0  0  0  0  0  0  0
    5.6473   -8.7216   15.3158 C   0  0  0  0  0  0  0  0  0  0  0  0
   10.7581   -3.1233   19.4720 N   0  0  0  0  0  0  0  0  0  0  0  0
    9.9571   -4.0573   16.8866 C   0  0  0  0  0  0  0  0  0  0  0  0
    7.6213   -6.5618   16.0087 C   0  0  0  0  0  0  0  0  0  0  0  0
   10.8583   -2.6527   20.7222 C   0  0  0  0  0  0  0  0  0  0  0  0
   10.6412   -3.5089   21.7936 C   0  0  0  0  0  0  0  0  0  0  0  0
   10.4972   -3.8968   24.1589 C   0  0  0  0  0  0  0  0  0  0  0  0
    5.9260   -8.2736   16.5517 C   0  0  0  0  0  0  0  0  0  0  0  0
    3.8816   -9.1166   17.2493 C   0  0  0  0  0  0  0  0  0  0  0  0
   10.1297   -1.6575   23.2324 C   0  0  0  0  0  0  0  0  0  0  0  0
    9.4684   -1.6929   26.7263 F   0  0  0  0  0  0  0  0  0  0  0  0
    7.7963   -7.7906   17.9837 C   0  0  0  0  0  0  0  0  0  0  0  0
   10.5884   -3.0725   16.7902 O   0  0  0  0  0  0  0  0  0  0  0  0
   10.4323   -5.3494   20.3516 C   0  0  0  0  0  0  0  0  0  0  0  0
    7.1156   -7.5454   16.8218 C   0  0  0  0  0  0  0  0  0  0  0  0
   10.3885   -4.4388   19.2773 C   0  0  0  0  0  0  0  0  0  0  0  0
    4.5160   -9.3822   15.0841 C   0  0  0  0  0  0  0  0  0  0  0  0
  1  3  4  0
  1 24  4  0
  2  6  4  0
  2 15  4  0
  3  5  4  0
  3  6  4  0
  4 21  4  0
  4 29  4  0
  5 15  4  0
  5 28  1  0
  6 16  4  0
  7 18  4  0
  7 26  4  0
  8 18  1  0
  8 19  4  0
  8 22  4  0
  9 12  4  0
  9 19  4  0
 10 12  4  0
 10 22  4  0
 11 20  4  0
 11 21  4  0
 12 23  1  0
 13 20  4  0
 13 29  4  0
 14 17  4  0
 14 28  4  0
 15 25  2  0
 16 27  4  0
 17 18  4  0
 20 27  1  0
 24 27  4  0
 26 28  4  0
M  END
$$$$

 Created by Python create_sdf_string function

 29 33  0  0  0  0  0  0  0  0999 V2000
    8.8270   -7.0288   18.4251 C   0  0  0  0  0  0  0  0  0  0  0  0
    9.1576   -4.6236   15.8860 O   0  0  0  0  0  0  0  0  0  0  0  0
    9.1509   -5.9108   17.7177 C   0  0  0  0  0  0  0  0  0  0  0  0
    3.6373   -9.5349   16.0582 N   0  0  0  0  0  0  0  0  0  0  0  0
    9.9275   -4.8001   18.0438 N   0  0  0  0  0  0  0  0  0  0  0  0
    8.5908   -5.7425   16.4412 C   0  0  0  0  0  0  0  0  0  0  0  0
   10.5993   -4.8981   21.6068 C   0  0  0  0  0  0  0  0  0  0  0  0
   10.4258   -3.0106   23.0998 C   0  0  0  0  0  0  0  0  0  0  0  0
   10.2148   -3.4364   25.4200 C   0  0  0  0  0  0  0  0  0  0  0  0
    9.7853   -1.1840   24.4927 C   0  0  0  0  0  0  0  0  0  0  0  0
    5.0276   -8.5227   17.5352 C   0  0  0  0  0  0  0  0  0  0  0  0
    9.8187   -2.0895   25.5800 C   0  0  0  0  0  0  0  0  0  0  0  0
    5.6473   -8.7216   15.3158 C   0  0  0  0  0  0  0  0  0  0  0  0
   10.7581   -3.1233   19.4720 N   0  0  0  0  0  0  0  0  0  0  0  0
    9.9571   -4.0573   16.8866 C   0  0  0  0  0  0  0  0  0  0  0  0
    7.6213   -6.5618   16.0087 C   0  0  0  0  0  0  0  0  0  0  0  0
   10.8583   -2.6527   20.7222 C   0  0  0  0  0  0  0  0  0  0  0  0
   10.6412   -3.5089   21.7936 C   0  0  0  0  0  0  0  0  0  0  0  0
   10.4972   -3.8968   24.1589 C   0  0  0  0  0  0  0  0  0  0  0  0
    5.9260   -8.2736   16.5517 C   0  0  0  0  0  0  0  0  0  0  0  0
    3.8816   -9.1166   17.2493 C   0  0  0  0  0  0  0  0  0  0  0  0
   10.1297   -1.6575   23.2324 C   0  0  0  0  0  0  0  0  0  0  0  0
    9.4684   -1.6929   26.7263 F   0  0  0  0  0  0  0  0  0  0  0  0
    7.7963   -7.7906   17.9837 C   0  0  0  0  0  0  0  0  0  0  0  0
   10.5884   -3.0725   16.7902 O   0  0  0  0  0  0  0  0  0  0  0  0
   10.4323   -5.3494   20.3516 C   0  0  0  0  0  0  0  0  0  0  0  0
    7.1156   -7.5454   16.8218 C   0  0  0  0  0  0  0  0  0  0  0  0
   10.3885   -4.4388   19.2773 C   0  0  0  0  0  0  0  0  0  0  0  0
    4.5160   -9.3822   15.0841 C   0  0  0  0  0  0  0  0  0  0  0  0
  1  3  4  0
  1 24  4  0
  2  6  4  0
  2 15  4  0
  3  5  4  0
  3  6  4  0
  4 21  4  0
  4 29  4  0
  5 15  4  0
  5 28  1  0
  6 16  4  0
  7 18  4  0
  7 26  4  0
  8 18  1  0
  8 19  4  0
  8 22  4  0
  9 12  4  0
  9 19  4  0
 10 12  4  0
 10 22  4  0
 11 20  4  0
 11 21  4  0
 12 23  1  0
 13 20  4  0
 13 29  4  0
 14 17  4  0
 14 28  4  0
 15 25  2  0
 16 27  4  0
 17 18  4  0
 20 27  1  0
 24 27  4  0
 26 28  4  0
M  END
$$$$

 Created by Python create_sdf_string function

 29 33  0  0  0  0  0  0  0  0999 V2000
    8.8270   -7.0288   18.4251 C   0  0  0  0  0  0  0  0  0  0  0  0
    9.1576   -4.6236   15.8860 O   0  0  0  0  0  0  0  0  0  0  0  0
    9.1509   -5.9108   17.7177 C   0  0  0  0  0  0  0  0  0  0  0  0
    3.6373   -9.5349   16.0582 N   0  0  0  0  0  0  0  0  0  0  0  0
    9.9275   -4.8001   18.0438 N   0  0  0  0  0  0  0  0  0  0  0  0
    8.5908   -5.7425   16.4412 C   0  0  0  0  0  0  0  0  0  0  0  0
   10.5993   -4.8981   21.6068 C   0  0  0  0  0  0  0  0  0  0  0  0
   10.4258   -3.0106   23.0998 C   0  0  0  0  0  0  0  0  0  0  0  0
   10.2148   -3.4364   25.4200 C   0  0  0  0  0  0  0  0  0  0  0  0
    9.7853   -1.1840   24.4927 C   0  0  0  0  0  0  0  0  0  0  0  0
    5.0276   -8.5227   17.5352 C   0  0  0  0  0  0  0  0  0  0  0  0
    9.8187   -2.0895   25.5800 C   0  0  0  0  0  0  0  0  0  0  0  0
    5.6473   -8.7216   15.3158 C   0  0  0  0  0  0  0  0  0  0  0  0
   10.7581   -3.1233   19.4720 N   0  0  0  0  0  0  0  0  0  0  0  0
    9.9571   -4.0573   16.8866 C   0  0  0  0  0  0  0  0  0  0  0  0
    7.6213   -6.5618   16.0087 C   0  0  0  0  0  0  0  0  0  0  0  0
   10.8583   -2.6527   20.7222 C   0  0  0  0  0  0  0  0  0  0  0  0
   10.6412   -3.5089   21.7936 C   0  0  0  0  0  0  0  0  0  0  0  0
   10.4972   -3.8968   24.1589 C   0  0  0  0  0  0  0  0  0  0  0  0
    5.9260   -8.2736   16.5517 C   0  0  0  0  0  0  0  0  0  0  0  0
    3.8816   -9.1166   17.2493 C   0  0  0  0  0  0  0  0  0  0  0  0
   10.1297   -1.6575   23.2324 C   0  0  0  0  0  0  0  0  0  0  0  0
    9.4684   -1.6929   26.7263 F   0  0  0  0  0  0  0  0  0  0  0  0
    7.7963   -7.7906   17.9837 C   0  0  0  0  0  0  0  0  0  0  0  0
   10.5884   -3.0725   16.7902 O   0  0  0  0  0  0  0  0  0  0  0  0
   10.4323   -5.3494   20.3516 C   0  0  0  0  0  0  0  0  0  0  0  0
    7.1156   -7.5454   16.8218 C   0  0  0  0  0  0  0  0  0  0  0  0
   10.3885   -4.4388   19.2773 C   0  0  0  0  0  0  0  0  0  0  0  0
    4.5160   -9.3822   15.0841 C   0  0  0  0  0  0  0  0  0  0  0  0
  1  3  4  0
  1 24  4  0
  2  6  4  0
  2 15  4  0
  3  5  4  0
  3  6  4  0
  4 21  4  0
  4 29  4  0
  5 15  4  0
  5 28  1  0
  6 16  4  0
  7 18  4  0
  7 26  4  0
  8 18  1  0
  8 19  4  0
  8 22  4  0
  9 12  4  0
  9 19  4  0
 10 12  4  0
 10 22  4  0
 11 20  4  0
 11 21  4  0
 12 23  1  0
 13 20  4  0
 13 29  4  0
 14 17  4  0
 14 28  4  0
 15 25  2  0
 16 27  4  0
 17 18  4  0
 20 27  1  0
 24 27  4  0
 26 28  4  0
M  END
$$$$

 Created by Python create_sdf_string function

 29 33  0  0  0  0  0  0  0  0999 V2000
    8.8270   -7.0288   18.4251 C   0  0  0  0  0  0  0  0  0  0  0  0
    9.1576   -4.6236   15.8860 O   0  0  0  0  0  0  0  0  0  0  0  0
    9.1509   -5.9108   17.7177 C   0  0  0  0  0  0  0  0  0  0  0  0
    3.6373   -9.5349   16.0582 N   0  0  0  0  0  0  0  0  0  0  0  0
    9.9275   -4.8001   18.0438 N   0  0  0  0  0  0  0  0  0  0  0  0
    8.5908   -5.7425   16.4412 C   0  0  0  0  0  0  0  0  0  0  0  0
   10.5993   -4.8981   21.6068 C   0  0  0  0  0  0  0  0  0  0  0  0
   10.4258   -3.0106   23.0998 C   0  0  0  0  0  0  0  0  0  0  0  0
   10.2148   -3.4364   25.4200 C   0  0  0  0  0  0  0  0  0  0  0  0
    9.7853   -1.1840   24.4927 C   0  0  0  0  0  0  0  0  0  0  0  0
    5.0276   -8.5227   17.5352 C   0  0  0  0  0  0  0  0  0  0  0  0
    9.8187   -2.0895   25.5800 C   0  0  0  0  0  0  0  0  0  0  0  0
    5.6473   -8.7216   15.3158 C   0  0  0  0  0  0  0  0  0  0  0  0
   10.7581   -3.1233   19.4720 N   0  0  0  0  0  0  0  0  0  0  0  0
    9.9571   -4.0573   16.8866 C   0  0  0  0  0  0  0  0  0  0  0  0
    7.6213   -6.5618   16.0087 C   0  0  0  0  0  0  0  0  0  0  0  0
   10.8583   -2.6527   20.7222 C   0  0  0  0  0  0  0  0  0  0  0  0
   10.6412   -3.5089   21.7936 C   0  0  0  0  0  0  0  0  0  0  0  0
   10.4972   -3.8968   24.1589 C   0  0  0  0  0  0  0  0  0  0  0  0
    5.9260   -8.2736   16.5517 C   0  0  0  0  0  0  0  0  0  0  0  0
    3.8816   -9.1166   17.2493 C   0  0  0  0  0  0  0  0  0  0  0  0
   10.1297   -1.6575   23.2324 C   0  0  0  0  0  0  0  0  0  0  0  0
    9.4684   -1.6929   26.7263 F   0  0  0  0  0  0  0  0  0  0  0  0
    7.7963   -7.7906   17.9837 C   0  0  0  0  0  0  0  0  0  0  0  0
   10.5884   -3.0725   16.7902 O   0  0  0  0  0  0  0  0  0  0  0  0
   10.4323   -5.3494   20.3516 C   0  0  0  0  0  0  0  0  0  0  0  0
    7.1156   -7.5454   16.8218 C   0  0  0  0  0  0  0  0  0  0  0  0
   10.3885   -4.4388   19.2773 C   0  0  0  0  0  0  0  0  0  0  0  0
    4.5160   -9.3822   15.0841 C   0  0  0  0  0  0  0  0  0  0  0  0
  1  3  4  0
  1 24  4  0
  2  6  4  0
  2 15  4  0
  3  5  4  0
  3  6  4  0
  4 21  4  0
  4 29  4  0
  5 15  4  0
  5 28  1  0
  6 16  4  0
  7 18  4  0
  7 26  4  0
  8 18  1  0
  8 19  4  0
  8 22  4  0
  9 12  4  0
  9 19  4  0
 10 12  4  0
 10 22  4  0
 11 20  4  0
 11 21  4  0
 12 23  1  0
 13 20  4  0
 13 29  4  0
 14 17  4  0
 14 28  4  0
 15 25  2  0
 16 27  4  0
 17 18  4  0
 20 27  1  0
 24 27  4  0
 26 28  4  0
M  END
$$$$

 Created by Python create_sdf_string function

 29 33  0  0  0  0  0  0  0  0999 V2000
    8.8270   -7.0288   18.4251 C   0  0  0  0  0  0  0  0  0  0  0  0
    9.1576   -4.6236   15.8860 O   0  0  0  0  0  0  0  0  0  0  0  0
    9.1509   -5.9108   17.7177 C   0  0  0  0  0  0  0  0  0  0  0  0
    3.6373   -9.5349   16.0582 N   0  0  0  0  0  0  0  0  0  0  0  0
    9.9275   -4.8001   18.0438 N   0  0  0  0  0  0  0  0  0  0  0  0
    8.5908   -5.7425   16.4412 C   0  0  0  0  0  0  0  0  0  0  0  0
   10.5993   -4.8981   21.6068 C   0  0  0  0  0  0  0  0  0  0  0  0
   10.4258   -3.0106   23.0998 C   0  0  0  0  0  0  0  0  0  0  0  0
   10.2148   -3.4364   25.4200 C   0  0  0  0  0  0  0  0  0  0  0  0
    9.7853   -1.1840   24.4927 C   0  0  0  0  0  0  0  0  0  0  0  0
    5.0276   -8.5227   17.5352 C   0  0  0  0  0  0  0  0  0  0  0  0
    9.8187   -2.0895   25.5800 C   0  0  0  0  0  0  0  0  0  0  0  0
    5.6473   -8.7216   15.3158 C   0  0  0  0  0  0  0  0  0  0  0  0
   10.7581   -3.1233   19.4720 N   0  0  0  0  0  0  0  0  0  0  0  0
    9.9571   -4.0573   16.8866 C   0  0  0  0  0  0  0  0  0  0  0  0
    7.6213   -6.5618   16.0087 C   0  0  0  0  0  0  0  0  0  0  0  0
   10.8583   -2.6527   20.7222 C   0  0  0  0  0  0  0  0  0  0  0  0
   10.6412   -3.5089   21.7936 C   0  0  0  0  0  0  0  0  0  0  0  0
   10.4972   -3.8968   24.1589 C   0  0  0  0  0  0  0  0  0  0  0  0
    5.9260   -8.2736   16.5517 C   0  0  0  0  0  0  0  0  0  0  0  0
    3.8816   -9.1166   17.2493 C   0  0  0  0  0  0  0  0  0  0  0  0
   10.1297   -1.6575   23.2324 C   0  0  0  0  0  0  0  0  0  0  0  0
    9.4684   -1.6929   26.7263 F   0  0  0  0  0  0  0  0  0  0  0  0
    7.7963   -7.7906   17.9837 C   0  0  0  0  0  0  0  0  0  0  0  0
   10.5884   -3.0725   16.7902 O   0  0  0  0  0  0  0  0  0  0  0  0
   10.4323   -5.3494   20.3516 C   0  0  0  0  0  0  0  0  0  0  0  0
    7.1156   -7.5454   16.8218 C   0  0  0  0  0  0  0  0  0  0  0  0
   10.3885   -4.4388   19.2773 C   0  0  0  0  0  0  0  0  0  0  0  0
    4.5160   -9.3822   15.0841 C   0  0  0  0  0  0  0  0  0  0  0  0
  1  3  4  0
  1 24  4  0
  2  6  4  0
  2 15  4  0
  3  5  4  0
  3  6  4  0
  4 21  4  0
  4 29  4  0
  5 15  4  0
  5 28  1  0
  6 16  4  0
  7 18  4  0
  7 26  4  0
  8 18  1  0
  8 19  4  0
  8 22  4  0
  9 12  4  0
  9 19  4  0
 10 12  4  0
 10 22  4  0
 11 20  4  0
 11 21  4  0
 12 23  1  0
 13 20  4  0
 13 29  4  0
 14 17  4  0
 14 28  4  0
 15 25  2  0
 16 27  4  0
 17 18  4  0
 20 27  1  0
 24 27  4  0
 26 28  4  0
M  END
$$$$

 Created by Python create_sdf_string function

 29 33  0  0  0  0  0  0  0  0999 V2000
    8.8270   -7.0288   18.4251 C   0  0  0  0  0  0  0  0  0  0  0  0
    9.1576   -4.6236   15.8860 O   0  0  0  0  0  0  0  0  0  0  0  0
    9.1509   -5.9108   17.7177 C   0  0  0  0  0  0  0  0  0  0  0  0
    3.6373   -9.5349   16.0582 N   0  0  0  0  0  0  0  0  0  0  0  0
    9.9275   -4.8001   18.0438 N   0  0  0  0  0  0  0  0  0  0  0  0
    8.5908   -5.7425   16.4412 C   0  0  0  0  0  0  0  0  0  0  0  0
   10.5993   -4.8981   21.6068 C   0  0  0  0  0  0  0  0  0  0  0  0
   10.4258   -3.0106   23.0998 C   0  0  0  0  0  0  0  0  0  0  0  0
   10.2148   -3.4364   25.4200 C   0  0  0  0  0  0  0  0  0  0  0  0
    9.7853   -1.1840   24.4927 C   0  0  0  0  0  0  0  0  0  0  0  0
    5.0276   -8.5227   17.5352 C   0  0  0  0  0  0  0  0  0  0  0  0
    9.8187   -2.0895   25.5800 C   0  0  0  0  0  0  0  0  0  0  0  0
    5.6473   -8.7216   15.3158 C   0  0  0  0  0  0  0  0  0  0  0  0
   10.7581   -3.1233   19.4720 N   0  0  0  0  0  0  0  0  0  0  0  0
    9.9571   -4.0573   16.8866 C   0  0  0  0  0  0  0  0  0  0  0  0
    7.6213   -6.5618   16.0087 C   0  0  0  0  0  0  0  0  0  0  0  0
   10.8583   -2.6527   20.7222 C   0  0  0  0  0  0  0  0  0  0  0  0
   10.6412   -3.5089   21.7936 C   0  0  0  0  0  0  0  0  0  0  0  0
   10.4972   -3.8968   24.1589 C   0  0  0  0  0  0  0  0  0  0  0  0
    5.9260   -8.2736   16.5517 C   0  0  0  0  0  0  0  0  0  0  0  0
    3.8816   -9.1166   17.2493 C   0  0  0  0  0  0  0  0  0  0  0  0
   10.1297   -1.6575   23.2324 C   0  0  0  0  0  0  0  0  0  0  0  0
    9.4684   -1.6929   26.7263 F   0  0  0  0  0  0  0  0  0  0  0  0
    7.7963   -7.7906   17.9837 C   0  0  0  0  0  0  0  0  0  0  0  0
   10.5884   -3.0725   16.7902 O   0  0  0  0  0  0  0  0  0  0  0  0
   10.4323   -5.3494   20.3516 C   0  0  0  0  0  0  0  0  0  0  0  0
    7.1156   -7.5454   16.8218 C   0  0  0  0  0  0  0  0  0  0  0  0
   10.3885   -4.4388   19.2773 C   0  0  0  0  0  0  0  0  0  0  0  0
    4.5160   -9.3822   15.0841 C   0  0  0  0  0  0  0  0  0  0  0  0
  1  3  4  0
  1 24  4  0
  2  6  4  0
  2 15  4  0
  3  5  4  0
  3  6  4  0
  4 21  4  0
  4 29  4  0
  5 15  4  0
  5 28  1  0
  6 16  4  0
  7 18  4  0
  7 26  4  0
  8 18  1  0
  8 19  4  0
  8 22  4  0
  9 12  4  0
  9 19  4  0
 10 12  4  0
 10 22  4  0
 11 20  4  0
 11 21  4  0
 12 23  1  0
 13 20  4  0
 13 29  4  0
 14 17  4  0
 14 28  4  0
 15 25  2  0
 16 27  4  0
 17 18  4  0
 20 27  1  0
 24 27  4  0
 26 28  4  0
M  END
$$$$

 Created by Python create_sdf_string function

 29 33  0  0  0  0  0  0  0  0999 V2000
    8.8270   -7.0288   18.4251 C   0  0  0  0  0  0  0  0  0  0  0  0
    9.1576   -4.6236   15.8860 O   0  0  0  0  0  0  0  0  0  0  0  0
    9.1509   -5.9108   17.7177 C   0  0  0  0  0  0  0  0  0  0  0  0
    3.6373   -9.5349   16.0582 N   0  0  0  0  0  0  0  0  0  0  0  0
    9.9275   -4.8001   18.0438 N   0  0  0  0  0  0  0  0  0  0  0  0
    8.5908   -5.7425   16.4412 C   0  0  0  0  0  0  0  0  0  0  0  0
   10.5993   -4.8981   21.6068 C   0  0  0  0  0  0  0  0  0  0  0  0
   10.4258   -3.0106   23.0998 C   0  0  0  0  0  0  0  0  0  0  0  0
   10.2148   -3.4364   25.4200 C   0  0  0  0  0  0  0  0  0  0  0  0
    9.7853   -1.1840   24.4927 C   0  0  0  0  0  0  0  0  0  0  0  0
    5.0276   -8.5227   17.5352 C   0  0  0  0  0  0  0  0  0  0  0  0
    9.8187   -2.0895   25.5800 C   0  0  0  0  0  0  0  0  0  0  0  0
    5.6473   -8.7216   15.3158 C   0  0  0  0  0  0  0  0  0  0  0  0
   10.7581   -3.1233   19.4720 N   0  0  0  0  0  0  0  0  0  0  0  0
    9.9571   -4.0573   16.8866 C   0  0  0  0  0  0  0  0  0  0  0  0
    7.6213   -6.5618   16.0087 C   0  0  0  0  0  0  0  0  0  0  0  0
   10.8583   -2.6527   20.7222 C   0  0  0  0  0  0  0  0  0  0  0  0
   10.6412   -3.5089   21.7936 C   0  0  0  0  0  0  0  0  0  0  0  0
   10.4972   -3.8968   24.1589 C   0  0  0  0  0  0  0  0  0  0  0  0
    5.9260   -8.2736   16.5517 C   0  0  0  0  0  0  0  0  0  0  0  0
    3.8816   -9.1166   17.2493 C   0  0  0  0  0  0  0  0  0  0  0  0
   10.1297   -1.6575   23.2324 C   0  0  0  0  0  0  0  0  0  0  0  0
    9.4684   -1.6929   26.7263 F   0  0  0  0  0  0  0  0  0  0  0  0
    7.7963   -7.7906   17.9837 C   0  0  0  0  0  0  0  0  0  0  0  0
   10.5884   -3.0725   16.7902 O   0  0  0  0  0  0  0  0  0  0  0  0
   10.4323   -5.3494   20.3516 C   0  0  0  0  0  0  0  0  0  0  0  0
    7.1156   -7.5454   16.8218 C   0  0  0  0  0  0  0  0  0  0  0  0
   10.3885   -4.4388   19.2773 C   0  0  0  0  0  0  0  0  0  0  0  0
    4.5160   -9.3822   15.0841 C   0  0  0  0  0  0  0  0  0  0  0  0
  1  3  4  0
  1 24  4  0
  2  6  4  0
  2 15  4  0
  3  5  4  0
  3  6  4  0
  4 21  4  0
  4 29  4  0
  5 15  4  0
  5 28  1  0
  6 16  4  0
  7 18  4  0
  7 26  4  0
  8 18  1  0
  8 19  4  0
  8 22  4  0
  9 12  4  0
  9 19  4  0
 10 12  4  0
 10 22  4  0
 11 20  4  0
 11 21  4  0
 12 23  1  0
 13 20  4  0
 13 29  4  0
 14 17  4  0
 14 28  4  0
 15 25  2  0
 16 27  4  0
 17 18  4  0
 20 27  1  0
 24 27  4  0
 26 28  4  0
M  END
$$$$

 Created by Python create_sdf_string function

 29 33  0  0  0  0  0  0  0  0999 V2000
    8.8270   -7.0288   18.4251 C   0  0  0  0  0  0  0  0  0  0  0  0
    9.1576   -4.6236   15.8860 O   0  0  0  0  0  0  0  0  0  0  0  0
    9.1509   -5.9108   17.7177 C   0  0  0  0  0  0  0  0  0  0  0  0
    3.6373   -9.5349   16.0582 N   0  0  0  0  0  0  0  0  0  0  0  0
    9.9275   -4.8001   18.0438 N   0  0  0  0  0  0  0  0  0  0  0  0
    8.5908   -5.7425   16.4412 C   0  0  0  0  0  0  0  0  0  0  0  0
   10.5993   -4.8981   21.6068 C   0  0  0  0  0  0  0  0  0  0  0  0
   10.4258   -3.0106   23.0998 C   0  0  0  0  0  0  0  0  0  0  0  0
   10.2148   -3.4364   25.4200 C   0  0  0  0  0  0  0  0  0  0  0  0
    9.7853   -1.1840   24.4927 C   0  0  0  0  0  0  0  0  0  0  0  0
    5.0276   -8.5227   17.5352 C   0  0  0  0  0  0  0  0  0  0  0  0
    9.8187   -2.0895   25.5800 C   0  0  0  0  0  0  0  0  0  0  0  0
    5.6473   -8.7216   15.3158 C   0  0  0  0  0  0  0  0  0  0  0  0
   10.7581   -3.1233   19.4720 N   0  0  0  0  0  0  0  0  0  0  0  0
    9.9571   -4.0573   16.8866 C   0  0  0  0  0  0  0  0  0  0  0  0
    7.6213   -6.5618   16.0087 C   0  0  0  0  0  0  0  0  0  0  0  0
   10.8583   -2.6527   20.7222 C   0  0  0  0  0  0  0  0  0  0  0  0
   10.6412   -3.5089   21.7936 C   0  0  0  0  0  0  0  0  0  0  0  0
   10.4972   -3.8968   24.1589 C   0  0  0  0  0  0  0  0  0  0  0  0
    5.9260   -8.2736   16.5517 C   0  0  0  0  0  0  0  0  0  0  0  0
    3.8816   -9.1166   17.2493 C   0  0  0  0  0  0  0  0  0  0  0  0
   10.1297   -1.6575   23.2324 C   0  0  0  0  0  0  0  0  0  0  0  0
    9.4684   -1.6929   26.7263 F   0  0  0  0  0  0  0  0  0  0  0  0
    7.7963   -7.7906   17.9837 C   0  0  0  0  0  0  0  0  0  0  0  0
   10.5884   -3.0725   16.7902 O   0  0  0  0  0  0  0  0  0  0  0  0
   10.4323   -5.3494   20.3516 C   0  0  0  0  0  0  0  0  0  0  0  0
    7.1156   -7.5454   16.8218 C   0  0  0  0  0  0  0  0  0  0  0  0
   10.3885   -4.4388   19.2773 C   0  0  0  0  0  0  0  0  0  0  0  0
    4.5160   -9.3822   15.0841 C   0  0  0  0  0  0  0  0  0  0  0  0
  1  3  4  0
  1 24  4  0
  2  6  4  0
  2 15  4  0
  3  5  4  0
  3  6  4  0
  4 21  4  0
  4 29  4  0
  5 15  4  0
  5 28  1  0
  6 16  4  0
  7 18  4  0
  7 26  4  0
  8 18  1  0
  8 19  4  0
  8 22  4  0
  9 12  4  0
  9 19  4  0
 10 12  4  0
 10 22  4  0
 11 20  4  0
 11 21  4  0
 12 23  1  0
 13 20  4  0
 13 29  4  0
 14 17  4  0
 14 28  4  0
 15 25  2  0
 16 27  4  0
 17 18  4  0
 20 27  1  0
 24 27  4  0
 26 28  4  0
M  END
$$$$

 Created by Python create_sdf_string function

 29 33  0  0  0  0  0  0  0  0999 V2000
    8.8270   -7.0288   18.4251 C   0  0  0  0  0  0  0  0  0  0  0  0
    9.1576   -4.6236   15.8860 O   0  0  0  0  0  0  0  0  0  0  0  0
    9.1509   -5.9108   17.7177 C   0  0  0  0  0  0  0  0  0  0  0  0
    3.6373   -9.5349   16.0582 N   0  0  0  0  0  0  0  0  0  0  0  0
    9.9275   -4.8001   18.0438 N   0  0  0  0  0  0  0  0  0  0  0  0
    8.5908   -5.7425   16.4412 C   0  0  0  0  0  0  0  0  0  0  0  0
   10.5993   -4.8981   21.6068 C   0  0  0  0  0  0  0  0  0  0  0  0
   10.4258   -3.0106   23.0998 C   0  0  0  0  0  0  0  0  0  0  0  0
   10.2148   -3.4364   25.4200 C   0  0  0  0  0  0  0  0  0  0  0  0
    9.7853   -1.1840   24.4927 C   0  0  0  0  0  0  0  0  0  0  0  0
    5.0276   -8.5227   17.5352 C   0  0  0  0  0  0  0  0  0  0  0  0
    9.8187   -2.0895   25.5800 C   0  0  0  0  0  0  0  0  0  0  0  0
    5.6473   -8.7216   15.3158 C   0  0  0  0  0  0  0  0  0  0  0  0
   10.7581   -3.1233   19.4720 N   0  0  0  0  0  0  0  0  0  0  0  0
    9.9571   -4.0573   16.8866 C   0  0  0  0  0  0  0  0  0  0  0  0
    7.6213   -6.5618   16.0087 C   0  0  0  0  0  0  0  0  0  0  0  0
   10.8583   -2.6527   20.7222 C   0  0  0  0  0  0  0  0  0  0  0  0
   10.6412   -3.5089   21.7936 C   0  0  0  0  0  0  0  0  0  0  0  0
   10.4972   -3.8968   24.1589 C   0  0  0  0  0  0  0  0  0  0  0  0
    5.9260   -8.2736   16.5517 C   0  0  0  0  0  0  0  0  0  0  0  0
    3.8816   -9.1166   17.2493 C   0  0  0  0  0  0  0  0  0  0  0  0
   10.1297   -1.6575   23.2324 C   0  0  0  0  0  0  0  0  0  0  0  0
    9.4684   -1.6929   26.7263 F   0  0  0  0  0  0  0  0  0  0  0  0
    7.7963   -7.7906   17.9837 C   0  0  0  0  0  0  0  0  0  0  0  0
   10.5884   -3.0725   16.7902 O   0  0  0  0  0  0  0  0  0  0  0  0
   10.4323   -5.3494   20.3516 C   0  0  0  0  0  0  0  0  0  0  0  0
    7.1156   -7.5454   16.8218 C   0  0  0  0  0  0  0  0  0  0  0  0
   10.3885   -4.4388   19.2773 C   0  0  0  0  0  0  0  0  0  0  0  0
    4.5160   -9.3822   15.0841 C   0  0  0  0  0  0  0  0  0  0  0  0
  1  3  4  0
  1 24  4  0
  2  6  4  0
  2 15  4  0
  3  5  4  0
  3  6  4  0
  4 21  4  0
  4 29  4  0
  5 15  4  0
  5 28  1  0
  6 16  4  0
  7 18  4  0
  7 26  4  0
  8 18  1  0
  8 19  4  0
  8 22  4  0
  9 12  4  0
  9 19  4  0
 10 12  4  0
 10 22  4  0
 11 20  4  0
 11 21  4  0
 12 23  1  0
 13 20  4  0
 13 29  4  0
 14 17  4  0
 14 28  4  0
 15 25  2  0
 16 27  4  0
 17 18  4  0
 20 27  1  0
 24 27  4  0
 26 28  4  0
M  END
$$$$

 Created by Python create_sdf_string function

 29 33  0  0  0  0  0  0  0  0999 V2000
    8.8270   -7.0288   18.4251 C   0  0  0  0  0  0  0  0  0  0  0  0
    9.1576   -4.6236   15.8860 O   0  0  0  0  0  0  0  0  0  0  0  0
    9.1509   -5.9108   17.7177 C   0  0  0  0  0  0  0  0  0  0  0  0
    3.6373   -9.5349   16.0582 N   0  0  0  0  0  0  0  0  0  0  0  0
    9.9275   -4.8001   18.0438 N   0  0  0  0  0  0  0  0  0  0  0  0
    8.5908   -5.7425   16.4412 C   0  0  0  0  0  0  0  0  0  0  0  0
   10.5993   -4.8981   21.6068 C   0  0  0  0  0  0  0  0  0  0  0  0
   10.4258   -3.0106   23.0998 C   0  0  0  0  0  0  0  0  0  0  0  0
   10.2148   -3.4364   25.4200 C   0  0  0  0  0  0  0  0  0  0  0  0
    9.7853   -1.1840   24.4927 C   0  0  0  0  0  0  0  0  0  0  0  0
    5.0276   -8.5227   17.5352 C   0  0  0  0  0  0  0  0  0  0  0  0
    9.8187   -2.0895   25.5800 C   0  0  0  0  0  0  0  0  0  0  0  0
    5.6473   -8.7216   15.3158 C   0  0  0  0  0  0  0  0  0  0  0  0
   10.7581   -3.1233   19.4720 N   0  0  0  0  0  0  0  0  0  0  0  0
    9.9571   -4.0573   16.8866 C   0  0  0  0  0  0  0  0  0  0  0  0
    7.6213   -6.5618   16.0087 C   0  0  0  0  0  0  0  0  0  0  0  0
   10.8583   -2.6527   20.7222 C   0  0  0  0  0  0  0  0  0  0  0  0
   10.6412   -3.5089   21.7936 C   0  0  0  0  0  0  0  0  0  0  0  0
   10.4972   -3.8968   24.1589 C   0  0  0  0  0  0  0  0  0  0  0  0
    5.9260   -8.2736   16.5517 C   0  0  0  0  0  0  0  0  0  0  0  0
    3.8816   -9.1166   17.2493 C   0  0  0  0  0  0  0  0  0  0  0  0
   10.1297   -1.6575   23.2324 C   0  0  0  0  0  0  0  0  0  0  0  0
    9.4684   -1.6929   26.7263 F   0  0  0  0  0  0  0  0  0  0  0  0
    7.7963   -7.7906   17.9837 C   0  0  0  0  0  0  0  0  0  0  0  0
   10.5884   -3.0725   16.7902 O   0  0  0  0  0  0  0  0  0  0  0  0
   10.4323   -5.3494   20.3516 C   0  0  0  0  0  0  0  0  0  0  0  0
    7.1156   -7.5454   16.8218 C   0  0  0  0  0  0  0  0  0  0  0  0
   10.3885   -4.4388   19.2773 C   0  0  0  0  0  0  0  0  0  0  0  0
    4.5160   -9.3822   15.0841 C   0  0  0  0  0  0  0  0  0  0  0  0
  1  3  4  0
  1 24  4  0
  2  6  4  0
  2 15  4  0
  3  5  4  0
  3  6  4  0
  4 21  4  0
  4 29  4  0
  5 15  4  0
  5 28  1  0
  6 16  4  0
  7 18  4  0
  7 26  4  0
  8 18  1  0
  8 19  4  0
  8 22  4  0
  9 12  4  0
  9 19  4  0
 10 12  4  0
 10 22  4  0
 11 20  4  0
 11 21  4  0
 12 23  1  0
 13 20  4  0
 13 29  4  0
 14 17  4  0
 14 28  4  0
 15 25  2  0
 16 27  4  0
 17 18  4  0
 20 27  1  0
 24 27  4  0
 26 28  4  0
M  END
$$$$

 Created by Python create_sdf_string function

 29 33  0  0  0  0  0  0  0  0999 V2000
    8.8270   -7.0288   18.4251 C   0  0  0  0  0  0  0  0  0  0  0  0
    9.1576   -4.6236   15.8860 O   0  0  0  0  0  0  0  0  0  0  0  0
    9.1509   -5.9108   17.7177 C   0  0  0  0  0  0  0  0  0  0  0  0
    3.6373   -9.5349   16.0582 N   0  0  0  0  0  0  0  0  0  0  0  0
    9.9275   -4.8001   18.0438 N   0  0  0  0  0  0  0  0  0  0  0  0
    8.5908   -5.7425   16.4412 C   0  0  0  0  0  0  0  0  0  0  0  0
   10.5993   -4.8981   21.6068 C   0  0  0  0  0  0  0  0  0  0  0  0
   10.4258   -3.0106   23.0998 C   0  0  0  0  0  0  0  0  0  0  0  0
   10.2148   -3.4364   25.4200 C   0  0  0  0  0  0  0  0  0  0  0  0
    9.7853   -1.1840   24.4927 C   0  0  0  0  0  0  0  0  0  0  0  0
    5.0276   -8.5227   17.5352 C   0  0  0  0  0  0  0  0  0  0  0  0
    9.8187   -2.0895   25.5800 C   0  0  0  0  0  0  0  0  0  0  0  0
    5.6473   -8.7216   15.3158 C   0  0  0  0  0  0  0  0  0  0  0  0
   10.7581   -3.1233   19.4720 N   0  0  0  0  0  0  0  0  0  0  0  0
    9.9571   -4.0573   16.8866 C   0  0  0  0  0  0  0  0  0  0  0  0
    7.6213   -6.5618   16.0087 C   0  0  0  0  0  0  0  0  0  0  0  0
   10.8583   -2.6527   20.7222 C   0  0  0  0  0  0  0  0  0  0  0  0
   10.6412   -3.5089   21.7936 C   0  0  0  0  0  0  0  0  0  0  0  0
   10.4972   -3.8968   24.1589 C   0  0  0  0  0  0  0  0  0  0  0  0
    5.9260   -8.2736   16.5517 C   0  0  0  0  0  0  0  0  0  0  0  0
    3.8816   -9.1166   17.2493 C   0  0  0  0  0  0  0  0  0  0  0  0
   10.1297   -1.6575   23.2324 C   0  0  0  0  0  0  0  0  0  0  0  0
    9.4684   -1.6929   26.7263 F   0  0  0  0  0  0  0  0  0  0  0  0
    7.7963   -7.7906   17.9837 C   0  0  0  0  0  0  0  0  0  0  0  0
   10.5884   -3.0725   16.7902 O   0  0  0  0  0  0  0  0  0  0  0  0
   10.4323   -5.3494   20.3516 C   0  0  0  0  0  0  0  0  0  0  0  0
    7.1156   -7.5454   16.8218 C   0  0  0  0  0  0  0  0  0  0  0  0
   10.3885   -4.4388   19.2773 C   0  0  0  0  0  0  0  0  0  0  0  0
    4.5160   -9.3822   15.0841 C   0  0  0  0  0  0  0  0  0  0  0  0
  1  3  4  0
  1 24  4  0
  2  6  4  0
  2 15  4  0
  3  5  4  0
  3  6  4  0
  4 21  4  0
  4 29  4  0
  5 15  4  0
  5 28  1  0
  6 16  4  0
  7 18  4  0
  7 26  4  0
  8 18  1  0
  8 19  4  0
  8 22  4  0
  9 12  4  0
  9 19  4  0
 10 12  4  0
 10 22  4  0
 11 20  4  0
 11 21  4  0
 12 23  1  0
 13 20  4  0
 13 29  4  0
 14 17  4  0
 14 28  4  0
 15 25  2  0
 16 27  4  0
 17 18  4  0
 20 27  1  0
 24 27  4  0
 26 28  4  0
M  END
$$$$

 Created by Python create_sdf_string function

 29 33  0  0  0  0  0  0  0  0999 V2000
    8.8270   -7.0288   18.4251 C   0  0  0  0  0  0  0  0  0  0  0  0
    9.1576   -4.6236   15.8860 O   0  0  0  0  0  0  0  0  0  0  0  0
    9.1509   -5.9108   17.7177 C   0  0  0  0  0  0  0  0  0  0  0  0
    3.6373   -9.5349   16.0582 N   0  0  0  0  0  0  0  0  0  0  0  0
    9.9275   -4.8001   18.0438 N   0  0  0  0  0  0  0  0  0  0  0  0
    8.5908   -5.7425   16.4412 C   0  0  0  0  0  0  0  0  0  0  0  0
   10.5993   -4.8981   21.6068 C   0  0  0  0  0  0  0  0  0  0  0  0
   10.4258   -3.0106   23.0998 C   0  0  0  0  0  0  0  0  0  0  0  0
   10.2148   -3.4364   25.4200 C   0  0  0  0  0  0  0  0  0  0  0  0
    9.7853   -1.1840   24.4927 C   0  0  0  0  0  0  0  0  0  0  0  0
    5.0276   -8.5227   17.5352 C   0  0  0  0  0  0  0  0  0  0  0  0
    9.8187   -2.0895   25.5800 C   0  0  0  0  0  0  0  0  0  0  0  0
    5.6473   -8.7216   15.3158 C   0  0  0  0  0  0  0  0  0  0  0  0
   10.7581   -3.1233   19.4720 N   0  0  0  0  0  0  0  0  0  0  0  0
    9.9571   -4.0573   16.8866 C   0  0  0  0  0  0  0  0  0  0  0  0
    7.6213   -6.5618   16.0087 C   0  0  0  0  0  0  0  0  0  0  0  0
   10.8583   -2.6527   20.7222 C   0  0  0  0  0  0  0  0  0  0  0  0
   10.6412   -3.5089   21.7936 C   0  0  0  0  0  0  0  0  0  0  0  0
   10.4972   -3.8968   24.1589 C   0  0  0  0  0  0  0  0  0  0  0  0
    5.9260   -8.2736   16.5517 C   0  0  0  0  0  0  0  0  0  0  0  0
    3.8816   -9.1166   17.2493 C   0  0  0  0  0  0  0  0  0  0  0  0
   10.1297   -1.6575   23.2324 C   0  0  0  0  0  0  0  0  0  0  0  0
    9.4684   -1.6929   26.7263 F   0  0  0  0  0  0  0  0  0  0  0  0
    7.7963   -7.7906   17.9837 C   0  0  0  0  0  0  0  0  0  0  0  0
   10.5884   -3.0725   16.7902 O   0  0  0  0  0  0  0  0  0  0  0  0
   10.4323   -5.3494   20.3516 C   0  0  0  0  0  0  0  0  0  0  0  0
    7.1156   -7.5454   16.8218 C   0  0  0  0  0  0  0  0  0  0  0  0
   10.3885   -4.4388   19.2773 C   0  0  0  0  0  0  0  0  0  0  0  0
    4.5160   -9.3822   15.0841 C   0  0  0  0  0  0  0  0  0  0  0  0
  1  3  4  0
  1 24  4  0
  2  6  4  0
  2 15  4  0
  3  5  4  0
  3  6  4  0
  4 21  4  0
  4 29  4  0
  5 15  4  0
  5 28  1  0
  6 16  4  0
  7 18  4  0
  7 26  4  0
  8 18  1  0
  8 19  4  0
  8 22  4  0
  9 12  4  0
  9 19  4  0
 10 12  4  0
 10 22  4  0
 11 20  4  0
 11 21  4  0
 12 23  1  0
 13 20  4  0
 13 29  4  0
 14 17  4  0
 14 28  4  0
 15 25  2  0
 16 27  4  0
 17 18  4  0
 20 27  1  0
 24 27  4  0
 26 28  4  0
M  END
$$$$

 Created by Python create_sdf_string function

 29 33  0  0  0  0  0  0  0  0999 V2000
    8.8270   -7.0288   18.4251 C   0  0  0  0  0  0  0  0  0  0  0  0
    9.1576   -4.6236   15.8860 O   0  0  0  0  0  0  0  0  0  0  0  0
    9.1509   -5.9108   17.7177 C   0  0  0  0  0  0  0  0  0  0  0  0
    3.6373   -9.5349   16.0582 N   0  0  0  0  0  0  0  0  0  0  0  0
    9.9275   -4.8001   18.0438 N   0  0  0  0  0  0  0  0  0  0  0  0
    8.5908   -5.7425   16.4412 C   0  0  0  0  0  0  0  0  0  0  0  0
   10.5993   -4.8981   21.6068 C   0  0  0  0  0  0  0  0  0  0  0  0
   10.4258   -3.0106   23.0998 C   0  0  0  0  0  0  0  0  0  0  0  0
   10.2148   -3.4364   25.4200 C   0  0  0  0  0  0  0  0  0  0  0  0
    9.7853   -1.1840   24.4927 C   0  0  0  0  0  0  0  0  0  0  0  0
    5.0276   -8.5227   17.5352 C   0  0  0  0  0  0  0  0  0  0  0  0
    9.8187   -2.0895   25.5800 C   0  0  0  0  0  0  0  0  0  0  0  0
    5.6473   -8.7216   15.3158 C   0  0  0  0  0  0  0  0  0  0  0  0
   10.7581   -3.1233   19.4720 N   0  0  0  0  0  0  0  0  0  0  0  0
    9.9571   -4.0573   16.8866 C   0  0  0  0  0  0  0  0  0  0  0  0
    7.6213   -6.5618   16.0087 C   0  0  0  0  0  0  0  0  0  0  0  0
   10.8583   -2.6527   20.7222 C   0  0  0  0  0  0  0  0  0  0  0  0
   10.6412   -3.5089   21.7936 C   0  0  0  0  0  0  0  0  0  0  0  0
   10.4972   -3.8968   24.1589 C   0  0  0  0  0  0  0  0  0  0  0  0
    5.9260   -8.2736   16.5517 C   0  0  0  0  0  0  0  0  0  0  0  0
    3.8816   -9.1166   17.2493 C   0  0  0  0  0  0  0  0  0  0  0  0
   10.1297   -1.6575   23.2324 C   0  0  0  0  0  0  0  0  0  0  0  0
    9.4684   -1.6929   26.7263 F   0  0  0  0  0  0  0  0  0  0  0  0
    7.7963   -7.7906   17.9837 C   0  0  0  0  0  0  0  0  0  0  0  0
   10.5884   -3.0725   16.7902 O   0  0  0  0  0  0  0  0  0  0  0  0
   10.4323   -5.3494   20.3516 C   0  0  0  0  0  0  0  0  0  0  0  0
    7.1156   -7.5454   16.8218 C   0  0  0  0  0  0  0  0  0  0  0  0
   10.3885   -4.4388   19.2773 C   0  0  0  0  0  0  0  0  0  0  0  0
    4.5160   -9.3822   15.0841 C   0  0  0  0  0  0  0  0  0  0  0  0
  1  3  4  0
  1 24  4  0
  2  6  4  0
  2 15  4  0
  3  5  4  0
  3  6  4  0
  4 21  4  0
  4 29  4  0
  5 15  4  0
  5 28  1  0
  6 16  4  0
  7 18  4  0
  7 26  4  0
  8 18  1  0
  8 19  4  0
  8 22  4  0
  9 12  4  0
  9 19  4  0
 10 12  4  0
 10 22  4  0
 11 20  4  0
 11 21  4  0
 12 23  1  0
 13 20  4  0
 13 29  4  0
 14 17  4  0
 14 28  4  0
 15 25  2  0
 16 27  4  0
 17 18  4  0
 20 27  1  0
 24 27  4  0
 26 28  4  0
M  END
$$$$

 Created by Python create_sdf_string function

 29 33  0  0  0  0  0  0  0  0999 V2000
    8.8270   -7.0288   18.4251 C   0  0  0  0  0  0  0  0  0  0  0  0
    9.1576   -4.6236   15.8860 O   0  0  0  0  0  0  0  0  0  0  0  0
    9.1509   -5.9108   17.7177 C   0  0  0  0  0  0  0  0  0  0  0  0
    3.6373   -9.5349   16.0582 N   0  0  0  0  0  0  0  0  0  0  0  0
    9.9275   -4.8001   18.0438 N   0  0  0  0  0  0  0  0  0  0  0  0
    8.5908   -5.7425   16.4412 C   0  0  0  0  0  0  0  0  0  0  0  0
   10.5993   -4.8981   21.6068 C   0  0  0  0  0  0  0  0  0  0  0  0
   10.4258   -3.0106   23.0998 C   0  0  0  0  0  0  0  0  0  0  0  0
   10.2148   -3.4364   25.4200 C   0  0  0  0  0  0  0  0  0  0  0  0
    9.7853   -1.1840   24.4927 C   0  0  0  0  0  0  0  0  0  0  0  0
    5.0276   -8.5227   17.5352 C   0  0  0  0  0  0  0  0  0  0  0  0
    9.8187   -2.0895   25.5800 C   0  0  0  0  0  0  0  0  0  0  0  0
    5.6473   -8.7216   15.3158 C   0  0  0  0  0  0  0  0  0  0  0  0
   10.7581   -3.1233   19.4720 N   0  0  0  0  0  0  0  0  0  0  0  0
    9.9571   -4.0573   16.8866 C   0  0  0  0  0  0  0  0  0  0  0  0
    7.6213   -6.5618   16.0087 C   0  0  0  0  0  0  0  0  0  0  0  0
   10.8583   -2.6527   20.7222 C   0  0  0  0  0  0  0  0  0  0  0  0
   10.6412   -3.5089   21.7936 C   0  0  0  0  0  0  0  0  0  0  0  0
   10.4972   -3.8968   24.1589 C   0  0  0  0  0  0  0  0  0  0  0  0
    5.9260   -8.2736   16.5517 C   0  0  0  0  0  0  0  0  0  0  0  0
    3.8816   -9.1166   17.2493 C   0  0  0  0  0  0  0  0  0  0  0  0
   10.1297   -1.6575   23.2324 C   0  0  0  0  0  0  0  0  0  0  0  0
    9.4684   -1.6929   26.7263 F   0  0  0  0  0  0  0  0  0  0  0  0
    7.7963   -7.7906   17.9837 C   0  0  0  0  0  0  0  0  0  0  0  0
   10.5884   -3.0725   16.7902 O   0  0  0  0  0  0  0  0  0  0  0  0
   10.4323   -5.3494   20.3516 C   0  0  0  0  0  0  0  0  0  0  0  0
    7.1156   -7.5454   16.8218 C   0  0  0  0  0  0  0  0  0  0  0  0
   10.3885   -4.4388   19.2773 C   0  0  0  0  0  0  0  0  0  0  0  0
    4.5160   -9.3822   15.0841 C   0  0  0  0  0  0  0  0  0  0  0  0
  1  3  4  0
  1 24  4  0
  2  6  4  0
  2 15  4  0
  3  5  4  0
  3  6  4  0
  4 21  4  0
  4 29  4  0
  5 15  4  0
  5 28  1  0
  6 16  4  0
  7 18  4  0
  7 26  4  0
  8 18  1  0
  8 19  4  0
  8 22  4  0
  9 12  4  0
  9 19  4  0
 10 12  4  0
 10 22  4  0
 11 20  4  0
 11 21  4  0
 12 23  1  0
 13 20  4  0
 13 29  4  0
 14 17  4  0
 14 28  4  0
 15 25  2  0
 16 27  4  0
 17 18  4  0
 20 27  1  0
 24 27  4  0
 26 28  4  0
M  END
$$$$

 Created by Python create_sdf_string function

 29 33  0  0  0  0  0  0  0  0999 V2000
    8.8270   -7.0288   18.4251 C   0  0  0  0  0  0  0  0  0  0  0  0
    9.1576   -4.6236   15.8860 O   0  0  0  0  0  0  0  0  0  0  0  0
    9.1509   -5.9108   17.7177 C   0  0  0  0  0  0  0  0  0  0  0  0
    3.6373   -9.5349   16.0582 N   0  0  0  0  0  0  0  0  0  0  0  0
    9.9275   -4.8001   18.0438 N   0  0  0  0  0  0  0  0  0  0  0  0
    8.5908   -5.7425   16.4412 C   0  0  0  0  0  0  0  0  0  0  0  0
   10.5993   -4.8981   21.6068 C   0  0  0  0  0  0  0  0  0  0  0  0
   10.4258   -3.0106   23.0998 C   0  0  0  0  0  0  0  0  0  0  0  0
   10.2148   -3.4364   25.4200 C   0  0  0  0  0  0  0  0  0  0  0  0
    9.7853   -1.1840   24.4927 C   0  0  0  0  0  0  0  0  0  0  0  0
    5.0276   -8.5227   17.5352 C   0  0  0  0  0  0  0  0  0  0  0  0
    9.8187   -2.0895   25.5800 C   0  0  0  0  0  0  0  0  0  0  0  0
    5.6473   -8.7216   15.3158 C   0  0  0  0  0  0  0  0  0  0  0  0
   10.7581   -3.1233   19.4720 N   0  0  0  0  0  0  0  0  0  0  0  0
    9.9571   -4.0573   16.8866 C   0  0  0  0  0  0  0  0  0  0  0  0
    7.6213   -6.5618   16.0087 C   0  0  0  0  0  0  0  0  0  0  0  0
   10.8583   -2.6527   20.7222 C   0  0  0  0  0  0  0  0  0  0  0  0
   10.6412   -3.5089   21.7936 C   0  0  0  0  0  0  0  0  0  0  0  0
   10.4972   -3.8968   24.1589 C   0  0  0  0  0  0  0  0  0  0  0  0
    5.9260   -8.2736   16.5517 C   0  0  0  0  0  0  0  0  0  0  0  0
    3.8816   -9.1166   17.2493 C   0  0  0  0  0  0  0  0  0  0  0  0
   10.1297   -1.6575   23.2324 C   0  0  0  0  0  0  0  0  0  0  0  0
    9.4684   -1.6929   26.7263 F   0  0  0  0  0  0  0  0  0  0  0  0
    7.7963   -7.7906   17.9837 C   0  0  0  0  0  0  0  0  0  0  0  0
   10.5884   -3.0725   16.7902 O   0  0  0  0  0  0  0  0  0  0  0  0
   10.4323   -5.3494   20.3516 C   0  0  0  0  0  0  0  0  0  0  0  0
    7.1156   -7.5454   16.8218 C   0  0  0  0  0  0  0  0  0  0  0  0
   10.3885   -4.4388   19.2773 C   0  0  0  0  0  0  0  0  0  0  0  0
    4.5160   -9.3822   15.0841 C   0  0  0  0  0  0  0  0  0  0  0  0
  1  3  4  0
  1 24  4  0
  2  6  4  0
  2 15  4  0
  3  5  4  0
  3  6  4  0
  4 21  4  0
  4 29  4  0
  5 15  4  0
  5 28  1  0
  6 16  4  0
  7 18  4  0
  7 26  4  0
  8 18  1  0
  8 19  4  0
  8 22  4  0
  9 12  4  0
  9 19  4  0
 10 12  4  0
 10 22  4  0
 11 20  4  0
 11 21  4  0
 12 23  1  0
 13 20  4  0
 13 29  4  0
 14 17  4  0
 14 28  4  0
 15 25  2  0
 16 27  4  0
 17 18  4  0
 20 27  1  0
 24 27  4  0
 26 28  4  0
M  END
$$$$

 Created by Python create_sdf_string function

 29 33  0  0  0  0  0  0  0  0999 V2000
    8.8270   -7.0288   18.4251 C   0  0  0  0  0  0  0  0  0  0  0  0
    9.1576   -4.6236   15.8860 O   0  0  0  0  0  0  0  0  0  0  0  0
    9.1509   -5.9108   17.7177 C   0  0  0  0  0  0  0  0  0  0  0  0
    3.6373   -9.5349   16.0582 N   0  0  0  0  0  0  0  0  0  0  0  0
    9.9275   -4.8001   18.0438 N   0  0  0  0  0  0  0  0  0  0  0  0
    8.5908   -5.7425   16.4412 C   0  0  0  0  0  0  0  0  0  0  0  0
   10.5993   -4.8981   21.6068 C   0  0  0  0  0  0  0  0  0  0  0  0
   10.4258   -3.0106   23.0998 C   0  0  0  0  0  0  0  0  0  0  0  0
   10.2148   -3.4364   25.4200 C   0  0  0  0  0  0  0  0  0  0  0  0
    9.7853   -1.1840   24.4927 C   0  0  0  0  0  0  0  0  0  0  0  0
    5.0276   -8.5227   17.5352 C   0  0  0  0  0  0  0  0  0  0  0  0
    9.8187   -2.0895   25.5800 C   0  0  0  0  0  0  0  0  0  0  0  0
    5.6473   -8.7216   15.3158 C   0  0  0  0  0  0  0  0  0  0  0  0
   10.7581   -3.1233   19.4720 N   0  0  0  0  0  0  0  0  0  0  0  0
    9.9571   -4.0573   16.8866 C   0  0  0  0  0  0  0  0  0  0  0  0
    7.6213   -6.5618   16.0087 C   0  0  0  0  0  0  0  0  0  0  0  0
   10.8583   -2.6527   20.7222 C   0  0  0  0  0  0  0  0  0  0  0  0
   10.6412   -3.5089   21.7936 C   0  0  0  0  0  0  0  0  0  0  0  0
   10.4972   -3.8968   24.1589 C   0  0  0  0  0  0  0  0  0  0  0  0
    5.9260   -8.2736   16.5517 C   0  0  0  0  0  0  0  0  0  0  0  0
    3.8816   -9.1166   17.2493 C   0  0  0  0  0  0  0  0  0  0  0  0
   10.1297   -1.6575   23.2324 C   0  0  0  0  0  0  0  0  0  0  0  0
    9.4684   -1.6929   26.7263 F   0  0  0  0  0  0  0  0  0  0  0  0
    7.7963   -7.7906   17.9837 C   0  0  0  0  0  0  0  0  0  0  0  0
   10.5884   -3.0725   16.7902 O   0  0  0  0  0  0  0  0  0  0  0  0
   10.4323   -5.3494   20.3516 C   0  0  0  0  0  0  0  0  0  0  0  0
    7.1156   -7.5454   16.8218 C   0  0  0  0  0  0  0  0  0  0  0  0
   10.3885   -4.4388   19.2773 C   0  0  0  0  0  0  0  0  0  0  0  0
    4.5160   -9.3822   15.0841 C   0  0  0  0  0  0  0  0  0  0  0  0
  1  3  4  0
  1 24  4  0
  2  6  4  0
  2 15  4  0
  3  5  4  0
  3  6  4  0
  4 21  4  0
  4 29  4  0
  5 15  4  0
  5 28  1  0
  6 16  4  0
  7 18  4  0
  7 26  4  0
  8 18  1  0
  8 19  4  0
  8 22  4  0
  9 12  4  0
  9 19  4  0
 10 12  4  0
 10 22  4  0
 11 20  4  0
 11 21  4  0
 12 23  1  0
 13 20  4  0
 13 29  4  0
 14 17  4  0
 14 28  4  0
 15 25  2  0
 16 27  4  0
 17 18  4  0
 20 27  1  0
 24 27  4  0
 26 28  4  0
M  END
$$$$

 Created by Python create_sdf_string function

 29 33  0  0  0  0  0  0  0  0999 V2000
    8.8270   -7.0288   18.4251 C   0  0  0  0  0  0  0  0  0  0  0  0
    9.1576   -4.6236   15.8860 O   0  0  0  0  0  0  0  0  0  0  0  0
    9.1509   -5.9108   17.7177 C   0  0  0  0  0  0  0  0  0  0  0  0
    3.6373   -9.5349   16.0582 N   0  0  0  0  0  0  0  0  0  0  0  0
    9.9275   -4.8001   18.0438 N   0  0  0  0  0  0  0  0  0  0  0  0
    8.5908   -5.7425   16.4412 C   0  0  0  0  0  0  0  0  0  0  0  0
   10.5993   -4.8981   21.6068 C   0  0  0  0  0  0  0  0  0  0  0  0
   10.4258   -3.0106   23.0998 C   0  0  0  0  0  0  0  0  0  0  0  0
   10.2148   -3.4364   25.4200 C   0  0  0  0  0  0  0  0  0  0  0  0
    9.7853   -1.1840   24.4927 C   0  0  0  0  0  0  0  0  0  0  0  0
    5.0276   -8.5227   17.5352 C   0  0  0  0  0  0  0  0  0  0  0  0
    9.8187   -2.0895   25.5800 C   0  0  0  0  0  0  0  0  0  0  0  0
    5.6473   -8.7216   15.3158 C   0  0  0  0  0  0  0  0  0  0  0  0
   10.7581   -3.1233   19.4720 N   0  0  0  0  0  0  0  0  0  0  0  0
    9.9571   -4.0573   16.8866 C   0  0  0  0  0  0  0  0  0  0  0  0
    7.6213   -6.5618   16.0087 C   0  0  0  0  0  0  0  0  0  0  0  0
   10.8583   -2.6527   20.7222 C   0  0  0  0  0  0  0  0  0  0  0  0
   10.6412   -3.5089   21.7936 C   0  0  0  0  0  0  0  0  0  0  0  0
   10.4972   -3.8968   24.1589 C   0  0  0  0  0  0  0  0  0  0  0  0
    5.9260   -8.2736   16.5517 C   0  0  0  0  0  0  0  0  0  0  0  0
    3.8816   -9.1166   17.2493 C   0  0  0  0  0  0  0  0  0  0  0  0
   10.1297   -1.6575   23.2324 C   0  0  0  0  0  0  0  0  0  0  0  0
    9.4684   -1.6929   26.7263 F   0  0  0  0  0  0  0  0  0  0  0  0
    7.7963   -7.7906   17.9837 C   0  0  0  0  0  0  0  0  0  0  0  0
   10.5884   -3.0725   16.7902 O   0  0  0  0  0  0  0  0  0  0  0  0
   10.4323   -5.3494   20.3516 C   0  0  0  0  0  0  0  0  0  0  0  0
    7.1156   -7.5454   16.8218 C   0  0  0  0  0  0  0  0  0  0  0  0
   10.3885   -4.4388   19.2773 C   0  0  0  0  0  0  0  0  0  0  0  0
    4.5160   -9.3822   15.0841 C   0  0  0  0  0  0  0  0  0  0  0  0
  1  3  4  0
  1 24  4  0
  2  6  4  0
  2 15  4  0
  3  5  4  0
  3  6  4  0
  4 21  4  0
  4 29  4  0
  5 15  4  0
  5 28  1  0
  6 16  4  0
  7 18  4  0
  7 26  4  0
  8 18  1  0
  8 19  4  0
  8 22  4  0
  9 12  4  0
  9 19  4  0
 10 12  4  0
 10 22  4  0
 11 20  4  0
 11 21  4  0
 12 23  1  0
 13 20  4  0
 13 29  4  0
 14 17  4  0
 14 28  4  0
 15 25  2  0
 16 27  4  0
 17 18  4  0
 20 27  1  0
 24 27  4  0
 26 28  4  0
M  END
$$$$

 Created by Python create_sdf_string function

 29 33  0  0  0  0  0  0  0  0999 V2000
    8.8270   -7.0288   18.4251 C   0  0  0  0  0  0  0  0  0  0  0  0
    9.1576   -4.6236   15.8860 O   0  0  0  0  0  0  0  0  0  0  0  0
    9.1509   -5.9108   17.7177 C   0  0  0  0  0  0  0  0  0  0  0  0
    3.6373   -9.5349   16.0582 N   0  0  0  0  0  0  0  0  0  0  0  0
    9.9275   -4.8001   18.0438 N   0  0  0  0  0  0  0  0  0  0  0  0
    8.5908   -5.7425   16.4412 C   0  0  0  0  0  0  0  0  0  0  0  0
   10.5993   -4.8981   21.6068 C   0  0  0  0  0  0  0  0  0  0  0  0
   10.4258   -3.0106   23.0998 C   0  0  0  0  0  0  0  0  0  0  0  0
   10.2148   -3.4364   25.4200 C   0  0  0  0  0  0  0  0  0  0  0  0
    9.7853   -1.1840   24.4927 C   0  0  0  0  0  0  0  0  0  0  0  0
    5.0276   -8.5227   17.5352 C   0  0  0  0  0  0  0  0  0  0  0  0
    9.8187   -2.0895   25.5800 C   0  0  0  0  0  0  0  0  0  0  0  0
    5.6473   -8.7216   15.3158 C   0  0  0  0  0  0  0  0  0  0  0  0
   10.7581   -3.1233   19.4720 N   0  0  0  0  0  0  0  0  0  0  0  0
    9.9571   -4.0573   16.8866 C   0  0  0  0  0  0  0  0  0  0  0  0
    7.6213   -6.5618   16.0087 C   0  0  0  0  0  0  0  0  0  0  0  0
   10.8583   -2.6527   20.7222 C   0  0  0  0  0  0  0  0  0  0  0  0
   10.6412   -3.5089   21.7936 C   0  0  0  0  0  0  0  0  0  0  0  0
   10.4972   -3.8968   24.1589 C   0  0  0  0  0  0  0  0  0  0  0  0
    5.9260   -8.2736   16.5517 C   0  0  0  0  0  0  0  0  0  0  0  0
    3.8816   -9.1166   17.2493 C   0  0  0  0  0  0  0  0  0  0  0  0
   10.1297   -1.6575   23.2324 C   0  0  0  0  0  0  0  0  0  0  0  0
    9.4684   -1.6929   26.7263 F   0  0  0  0  0  0  0  0  0  0  0  0
    7.7963   -7.7906   17.9837 C   0  0  0  0  0  0  0  0  0  0  0  0
   10.5884   -3.0725   16.7902 O   0  0  0  0  0  0  0  0  0  0  0  0
   10.4323   -5.3494   20.3516 C   0  0  0  0  0  0  0  0  0  0  0  0
    7.1156   -7.5454   16.8218 C   0  0  0  0  0  0  0  0  0  0  0  0
   10.3885   -4.4388   19.2773 C   0  0  0  0  0  0  0  0  0  0  0  0
    4.5160   -9.3822   15.0841 C   0  0  0  0  0  0  0  0  0  0  0  0
  1  3  4  0
  1 24  4  0
  2  6  4  0
  2 15  4  0
  3  5  4  0
  3  6  4  0
  4 21  4  0
  4 29  4  0
  5 15  4  0
  5 28  1  0
  6 16  4  0
  7 18  4  0
  7 26  4  0
  8 18  1  0
  8 19  4  0
  8 22  4  0
  9 12  4  0
  9 19  4  0
 10 12  4  0
 10 22  4  0
 11 20  4  0
 11 21  4  0
 12 23  1  0
 13 20  4  0
 13 29  4  0
 14 17  4  0
 14 28  4  0
 15 25  2  0
 16 27  4  0
 17 18  4  0
 20 27  1  0
 24 27  4  0
 26 28  4  0
M  END
$$$$

 Created by Python create_sdf_string function

 29 33  0  0  0  0  0  0  0  0999 V2000
    8.8270   -7.0288   18.4251 C   0  0  0  0  0  0  0  0  0  0  0  0
    9.1576   -4.6236   15.8860 O   0  0  0  0  0  0  0  0  0  0  0  0
    9.1509   -5.9108   17.7177 C   0  0  0  0  0  0  0  0  0  0  0  0
    3.6373   -9.5349   16.0582 N   0  0  0  0  0  0  0  0  0  0  0  0
    9.9275   -4.8001   18.0438 N   0  0  0  0  0  0  0  0  0  0  0  0
    8.5908   -5.7425   16.4412 C   0  0  0  0  0  0  0  0  0  0  0  0
   10.5993   -4.8981   21.6068 C   0  0  0  0  0  0  0  0  0  0  0  0
   10.4258   -3.0106   23.0998 C   0  0  0  0  0  0  0  0  0  0  0  0
   10.2148   -3.4364   25.4200 C   0  0  0  0  0  0  0  0  0  0  0  0
    9.7853   -1.1840   24.4927 C   0  0  0  0  0  0  0  0  0  0  0  0
    5.0276   -8.5227   17.5352 C   0  0  0  0  0  0  0  0  0  0  0  0
    9.8187   -2.0895   25.5800 C   0  0  0  0  0  0  0  0  0  0  0  0
    5.6473   -8.7216   15.3158 C   0  0  0  0  0  0  0  0  0  0  0  0
   10.7581   -3.1233   19.4720 N   0  0  0  0  0  0  0  0  0  0  0  0
    9.9571   -4.0573   16.8866 C   0  0  0  0  0  0  0  0  0  0  0  0
    7.6213   -6.5618   16.0087 C   0  0  0  0  0  0  0  0  0  0  0  0
   10.8583   -2.6527   20.7222 C   0  0  0  0  0  0  0  0  0  0  0  0
   10.6412   -3.5089   21.7936 C   0  0  0  0  0  0  0  0  0  0  0  0
   10.4972   -3.8968   24.1589 C   0  0  0  0  0  0  0  0  0  0  0  0
    5.9260   -8.2736   16.5517 C   0  0  0  0  0  0  0  0  0  0  0  0
    3.8816   -9.1166   17.2493 C   0  0  0  0  0  0  0  0  0  0  0  0
   10.1297   -1.6575   23.2324 C   0  0  0  0  0  0  0  0  0  0  0  0
    9.4684   -1.6929   26.7263 F   0  0  0  0  0  0  0  0  0  0  0  0
    7.7963   -7.7906   17.9837 C   0  0  0  0  0  0  0  0  0  0  0  0
   10.5884   -3.0725   16.7902 O   0  0  0  0  0  0  0  0  0  0  0  0
   10.4323   -5.3494   20.3516 C   0  0  0  0  0  0  0  0  0  0  0  0
    7.1156   -7.5454   16.8218 C   0  0  0  0  0  0  0  0  0  0  0  0
   10.3885   -4.4388   19.2773 C   0  0  0  0  0  0  0  0  0  0  0  0
    4.5160   -9.3822   15.0841 C   0  0  0  0  0  0  0  0  0  0  0  0
  1  3  4  0
  1 24  4  0
  2  6  4  0
  2 15  4  0
  3  5  4  0
  3  6  4  0
  4 21  4  0
  4 29  4  0
  5 15  4  0
  5 28  1  0
  6 16  4  0
  7 18  4  0
  7 26  4  0
  8 18  1  0
  8 19  4  0
  8 22  4  0
  9 12  4  0
  9 19  4  0
 10 12  4  0
 10 22  4  0
 11 20  4  0
 11 21  4  0
 12 23  1  0
 13 20  4  0
 13 29  4  0
 14 17  4  0
 14 28  4  0
 15 25  2  0
 16 27  4  0
 17 18  4  0
 20 27  1  0
 24 27  4  0
 26 28  4  0
M  END
$$$$

 Created by Python create_sdf_string function

 29 33  0  0  0  0  0  0  0  0999 V2000
    8.8270   -7.0288   18.4251 C   0  0  0  0  0  0  0  0  0  0  0  0
    9.1576   -4.6236   15.8860 O   0  0  0  0  0  0  0  0  0  0  0  0
    9.1509   -5.9108   17.7177 C   0  0  0  0  0  0  0  0  0  0  0  0
    3.6373   -9.5349   16.0582 N   0  0  0  0  0  0  0  0  0  0  0  0
    9.9275   -4.8001   18.0438 N   0  0  0  0  0  0  0  0  0  0  0  0
    8.5908   -5.7425   16.4412 C   0  0  0  0  0  0  0  0  0  0  0  0
   10.5993   -4.8981   21.6068 C   0  0  0  0  0  0  0  0  0  0  0  0
   10.4258   -3.0106   23.0998 C   0  0  0  0  0  0  0  0  0  0  0  0
   10.2148   -3.4364   25.4200 C   0  0  0  0  0  0  0  0  0  0  0  0
    9.7853   -1.1840   24.4927 C   0  0  0  0  0  0  0  0  0  0  0  0
    5.0276   -8.5227   17.5352 C   0  0  0  0  0  0  0  0  0  0  0  0
    9.8187   -2.0895   25.5800 C   0  0  0  0  0  0  0  0  0  0  0  0
    5.6473   -8.7216   15.3158 C   0  0  0  0  0  0  0  0  0  0  0  0
   10.7581   -3.1233   19.4720 N   0  0  0  0  0  0  0  0  0  0  0  0
    9.9571   -4.0573   16.8866 C   0  0  0  0  0  0  0  0  0  0  0  0
    7.6213   -6.5618   16.0087 C   0  0  0  0  0  0  0  0  0  0  0  0
   10.8583   -2.6527   20.7222 C   0  0  0  0  0  0  0  0  0  0  0  0
   10.6412   -3.5089   21.7936 C   0  0  0  0  0  0  0  0  0  0  0  0
   10.4972   -3.8968   24.1589 C   0  0  0  0  0  0  0  0  0  0  0  0
    5.9260   -8.2736   16.5517 C   0  0  0  0  0  0  0  0  0  0  0  0
    3.8816   -9.1166   17.2493 C   0  0  0  0  0  0  0  0  0  0  0  0
   10.1297   -1.6575   23.2324 C   0  0  0  0  0  0  0  0  0  0  0  0
    9.4684   -1.6929   26.7263 F   0  0  0  0  0  0  0  0  0  0  0  0
    7.7963   -7.7906   17.9837 C   0  0  0  0  0  0  0  0  0  0  0  0
   10.5884   -3.0725   16.7902 O   0  0  0  0  0  0  0  0  0  0  0  0
   10.4323   -5.3494   20.3516 C   0  0  0  0  0  0  0  0  0  0  0  0
    7.1156   -7.5454   16.8218 C   0  0  0  0  0  0  0  0  0  0  0  0
   10.3885   -4.4388   19.2773 C   0  0  0  0  0  0  0  0  0  0  0  0
    4.5160   -9.3822   15.0841 C   0  0  0  0  0  0  0  0  0  0  0  0
  1  3  4  0
  1 24  4  0
  2  6  4  0
  2 15  4  0
  3  5  4  0
  3  6  4  0
  4 21  4  0
  4 29  4  0
  5 15  4  0
  5 28  1  0
  6 16  4  0
  7 18  4  0
  7 26  4  0
  8 18  1  0
  8 19  4  0
  8 22  4  0
  9 12  4  0
  9 19  4  0
 10 12  4  0
 10 22  4  0
 11 20  4  0
 11 21  4  0
 12 23  1  0
 13 20  4  0
 13 29  4  0
 14 17  4  0
 14 28  4  0
 15 25  2  0
 16 27  4  0
 17 18  4  0
 20 27  1  0
 24 27  4  0
 26 28  4  0
M  END
$$$$

 Created by Python create_sdf_string function

 29 33  0  0  0  0  0  0  0  0999 V2000
    8.8270   -7.0288   18.4251 C   0  0  0  0  0  0  0  0  0  0  0  0
    9.1576   -4.6236   15.8860 O   0  0  0  0  0  0  0  0  0  0  0  0
    9.1509   -5.9108   17.7177 C   0  0  0  0  0  0  0  0  0  0  0  0
    3.6373   -9.5349   16.0582 N   0  0  0  0  0  0  0  0  0  0  0  0
    9.9275   -4.8001   18.0438 N   0  0  0  0  0  0  0  0  0  0  0  0
    8.5908   -5.7425   16.4412 C   0  0  0  0  0  0  0  0  0  0  0  0
   10.5993   -4.8981   21.6068 C   0  0  0  0  0  0  0  0  0  0  0  0
   10.4258   -3.0106   23.0998 C   0  0  0  0  0  0  0  0  0  0  0  0
   10.2148   -3.4364   25.4200 C   0  0  0  0  0  0  0  0  0  0  0  0
    9.7853   -1.1840   24.4927 C   0  0  0  0  0  0  0  0  0  0  0  0
    5.0276   -8.5227   17.5352 C   0  0  0  0  0  0  0  0  0  0  0  0
    9.8187   -2.0895   25.5800 C   0  0  0  0  0  0  0  0  0  0  0  0
    5.6473   -8.7216   15.3158 C   0  0  0  0  0  0  0  0  0  0  0  0
   10.7581   -3.1233   19.4720 N   0  0  0  0  0  0  0  0  0  0  0  0
    9.9571   -4.0573   16.8866 C   0  0  0  0  0  0  0  0  0  0  0  0
    7.6213   -6.5618   16.0087 C   0  0  0  0  0  0  0  0  0  0  0  0
   10.8583   -2.6527   20.7222 C   0  0  0  0  0  0  0  0  0  0  0  0
   10.6412   -3.5089   21.7936 C   0  0  0  0  0  0  0  0  0  0  0  0
   10.4972   -3.8968   24.1589 C   0  0  0  0  0  0  0  0  0  0  0  0
    5.9260   -8.2736   16.5517 C   0  0  0  0  0  0  0  0  0  0  0  0
    3.8816   -9.1166   17.2493 C   0  0  0  0  0  0  0  0  0  0  0  0
   10.1297   -1.6575   23.2324 C   0  0  0  0  0  0  0  0  0  0  0  0
    9.4684   -1.6929   26.7263 F   0  0  0  0  0  0  0  0  0  0  0  0
    7.7963   -7.7906   17.9837 C   0  0  0  0  0  0  0  0  0  0  0  0
   10.5884   -3.0725   16.7902 O   0  0  0  0  0  0  0  0  0  0  0  0
   10.4323   -5.3494   20.3516 C   0  0  0  0  0  0  0  0  0  0  0  0
    7.1156   -7.5454   16.8218 C   0  0  0  0  0  0  0  0  0  0  0  0
   10.3885   -4.4388   19.2773 C   0  0  0  0  0  0  0  0  0  0  0  0
    4.5160   -9.3822   15.0841 C   0  0  0  0  0  0  0  0  0  0  0  0
  1  3  4  0
  1 24  4  0
  2  6  4  0
  2 15  4  0
  3  5  4  0
  3  6  4  0
  4 21  4  0
  4 29  4  0
  5 15  4  0
  5 28  1  0
  6 16  4  0
  7 18  4  0
  7 26  4  0
  8 18  1  0
  8 19  4  0
  8 22  4  0
  9 12  4  0
  9 19  4  0
 10 12  4  0
 10 22  4  0
 11 20  4  0
 11 21  4  0
 12 23  1  0
 13 20  4  0
 13 29  4  0
 14 17  4  0
 14 28  4  0
 15 25  2  0
 16 27  4  0
 17 18  4  0
 20 27  1  0
 24 27  4  0
 26 28  4  0
M  END
$$$$

 Created by Python create_sdf_string function

 29 33  0  0  0  0  0  0  0  0999 V2000
    8.8270   -7.0288   18.4251 C   0  0  0  0  0  0  0  0  0  0  0  0
    9.1576   -4.6236   15.8860 O   0  0  0  0  0  0  0  0  0  0  0  0
    9.1509   -5.9108   17.7177 C   0  0  0  0  0  0  0  0  0  0  0  0
    3.6373   -9.5349   16.0582 N   0  0  0  0  0  0  0  0  0  0  0  0
    9.9275   -4.8001   18.0438 N   0  0  0  0  0  0  0  0  0  0  0  0
    8.5908   -5.7425   16.4412 C   0  0  0  0  0  0  0  0  0  0  0  0
   10.5993   -4.8981   21.6068 C   0  0  0  0  0  0  0  0  0  0  0  0
   10.4258   -3.0106   23.0998 C   0  0  0  0  0  0  0  0  0  0  0  0
   10.2148   -3.4364   25.4200 C   0  0  0  0  0  0  0  0  0  0  0  0
    9.7853   -1.1840   24.4927 C   0  0  0  0  0  0  0  0  0  0  0  0
    5.0276   -8.5227   17.5352 C   0  0  0  0  0  0  0  0  0  0  0  0
    9.8187   -2.0895   25.5800 C   0  0  0  0  0  0  0  0  0  0  0  0
    5.6473   -8.7216   15.3158 C   0  0  0  0  0  0  0  0  0  0  0  0
   10.7581   -3.1233   19.4720 N   0  0  0  0  0  0  0  0  0  0  0  0
    9.9571   -4.0573   16.8866 C   0  0  0  0  0  0  0  0  0  0  0  0
    7.6213   -6.5618   16.0087 C   0  0  0  0  0  0  0  0  0  0  0  0
   10.8583   -2.6527   20.7222 C   0  0  0  0  0  0  0  0  0  0  0  0
   10.6412   -3.5089   21.7936 C   0  0  0  0  0  0  0  0  0  0  0  0
   10.4972   -3.8968   24.1589 C   0  0  0  0  0  0  0  0  0  0  0  0
    5.9260   -8.2736   16.5517 C   0  0  0  0  0  0  0  0  0  0  0  0
    3.8816   -9.1166   17.2493 C   0  0  0  0  0  0  0  0  0  0  0  0
   10.1297   -1.6575   23.2324 C   0  0  0  0  0  0  0  0  0  0  0  0
    9.4684   -1.6929   26.7263 F   0  0  0  0  0  0  0  0  0  0  0  0
    7.7963   -7.7906   17.9837 C   0  0  0  0  0  0  0  0  0  0  0  0
   10.5884   -3.0725   16.7902 O   0  0  0  0  0  0  0  0  0  0  0  0
   10.4323   -5.3494   20.3516 C   0  0  0  0  0  0  0  0  0  0  0  0
    7.1156   -7.5454   16.8218 C   0  0  0  0  0  0  0  0  0  0  0  0
   10.3885   -4.4388   19.2773 C   0  0  0  0  0  0  0  0  0  0  0  0
    4.5160   -9.3822   15.0841 C   0  0  0  0  0  0  0  0  0  0  0  0
  1  3  4  0
  1 24  4  0
  2  6  4  0
  2 15  4  0
  3  5  4  0
  3  6  4  0
  4 21  4  0
  4 29  4  0
  5 15  4  0
  5 28  1  0
  6 16  4  0
  7 18  4  0
  7 26  4  0
  8 18  1  0
  8 19  4  0
  8 22  4  0
  9 12  4  0
  9 19  4  0
 10 12  4  0
 10 22  4  0
 11 20  4  0
 11 21  4  0
 12 23  1  0
 13 20  4  0
 13 29  4  0
 14 17  4  0
 14 28  4  0
 15 25  2  0
 16 27  4  0
 17 18  4  0
 20 27  1  0
 24 27  4  0
 26 28  4  0
M  END
$$$$

 Created by Python create_sdf_string function

 29 33  0  0  0  0  0  0  0  0999 V2000
    8.8270   -7.0288   18.4251 C   0  0  0  0  0  0  0  0  0  0  0  0
    9.1576   -4.6236   15.8860 O   0  0  0  0  0  0  0  0  0  0  0  0
    9.1509   -5.9108   17.7177 C   0  0  0  0  0  0  0  0  0  0  0  0
    3.6373   -9.5349   16.0582 N   0  0  0  0  0  0  0  0  0  0  0  0
    9.9275   -4.8001   18.0438 N   0  0  0  0  0  0  0  0  0  0  0  0
    8.5908   -5.7425   16.4412 C   0  0  0  0  0  0  0  0  0  0  0  0
   10.5993   -4.8981   21.6068 C   0  0  0  0  0  0  0  0  0  0  0  0
   10.4258   -3.0106   23.0998 C   0  0  0  0  0  0  0  0  0  0  0  0
   10.2148   -3.4364   25.4200 C   0  0  0  0  0  0  0  0  0  0  0  0
    9.7853   -1.1840   24.4927 C   0  0  0  0  0  0  0  0  0  0  0  0
    5.0276   -8.5227   17.5352 C   0  0  0  0  0  0  0  0  0  0  0  0
    9.8187   -2.0895   25.5800 C   0  0  0  0  0  0  0  0  0  0  0  0
    5.6473   -8.7216   15.3158 C   0  0  0  0  0  0  0  0  0  0  0  0
   10.7581   -3.1233   19.4720 N   0  0  0  0  0  0  0  0  0  0  0  0
    9.9571   -4.0573   16.8866 C   0  0  0  0  0  0  0  0  0  0  0  0
    7.6213   -6.5618   16.0087 C   0  0  0  0  0  0  0  0  0  0  0  0
   10.8583   -2.6527   20.7222 C   0  0  0  0  0  0  0  0  0  0  0  0
   10.6412   -3.5089   21.7936 C   0  0  0  0  0  0  0  0  0  0  0  0
   10.4972   -3.8968   24.1589 C   0  0  0  0  0  0  0  0  0  0  0  0
    5.9260   -8.2736   16.5517 C   0  0  0  0  0  0  0  0  0  0  0  0
    3.8816   -9.1166   17.2493 C   0  0  0  0  0  0  0  0  0  0  0  0
   10.1297   -1.6575   23.2324 C   0  0  0  0  0  0  0  0  0  0  0  0
    9.4684   -1.6929   26.7263 F   0  0  0  0  0  0  0  0  0  0  0  0
    7.7963   -7.7906   17.9837 C   0  0  0  0  0  0  0  0  0  0  0  0
   10.5884   -3.0725   16.7902 O   0  0  0  0  0  0  0  0  0  0  0  0
   10.4323   -5.3494   20.3516 C   0  0  0  0  0  0  0  0  0  0  0  0
    7.1156   -7.5454   16.8218 C   0  0  0  0  0  0  0  0  0  0  0  0
   10.3885   -4.4388   19.2773 C   0  0  0  0  0  0  0  0  0  0  0  0
    4.5160   -9.3822   15.0841 C   0  0  0  0  0  0  0  0  0  0  0  0
  1  3  4  0
  1 24  4  0
  2  6  4  0
  2 15  4  0
  3  5  4  0
  3  6  4  0
  4 21  4  0
  4 29  4  0
  5 15  4  0
  5 28  1  0
  6 16  4  0
  7 18  4  0
  7 26  4  0
  8 18  1  0
  8 19  4  0
  8 22  4  0
  9 12  4  0
  9 19  4  0
 10 12  4  0
 10 22  4  0
 11 20  4  0
 11 21  4  0
 12 23  1  0
 13 20  4  0
 13 29  4  0
 14 17  4  0
 14 28  4  0
 15 25  2  0
 16 27  4  0
 17 18  4  0
 20 27  1  0
 24 27  4  0
 26 28  4  0
M  END
$$$$

 Created by Python create_sdf_string function

 29 33  0  0  0  0  0  0  0  0999 V2000
    8.8270   -7.0288   18.4251 C   0  0  0  0  0  0  0  0  0  0  0  0
    9.1576   -4.6236   15.8860 O   0  0  0  0  0  0  0  0  0  0  0  0
    9.1509   -5.9108   17.7177 C   0  0  0  0  0  0  0  0  0  0  0  0
    3.6373   -9.5349   16.0582 N   0  0  0  0  0  0  0  0  0  0  0  0
    9.9275   -4.8001   18.0438 N   0  0  0  0  0  0  0  0  0  0  0  0
    8.5908   -5.7425   16.4412 C   0  0  0  0  0  0  0  0  0  0  0  0
   10.5993   -4.8981   21.6068 C   0  0  0  0  0  0  0  0  0  0  0  0
   10.4258   -3.0106   23.0998 C   0  0  0  0  0  0  0  0  0  0  0  0
   10.2148   -3.4364   25.4200 C   0  0  0  0  0  0  0  0  0  0  0  0
    9.7853   -1.1840   24.4927 C   0  0  0  0  0  0  0  0  0  0  0  0
    5.0276   -8.5227   17.5352 C   0  0  0  0  0  0  0  0  0  0  0  0
    9.8187   -2.0895   25.5800 C   0  0  0  0  0  0  0  0  0  0  0  0
    5.6473   -8.7216   15.3158 C   0  0  0  0  0  0  0  0  0  0  0  0
   10.7581   -3.1233   19.4720 N   0  0  0  0  0  0  0  0  0  0  0  0
    9.9571   -4.0573   16.8866 C   0  0  0  0  0  0  0  0  0  0  0  0
    7.6213   -6.5618   16.0087 C   0  0  0  0  0  0  0  0  0  0  0  0
   10.8583   -2.6527   20.7222 C   0  0  0  0  0  0  0  0  0  0  0  0
   10.6412   -3.5089   21.7936 C   0  0  0  0  0  0  0  0  0  0  0  0
   10.4972   -3.8968   24.1589 C   0  0  0  0  0  0  0  0  0  0  0  0
    5.9260   -8.2736   16.5517 C   0  0  0  0  0  0  0  0  0  0  0  0
    3.8816   -9.1166   17.2493 C   0  0  0  0  0  0  0  0  0  0  0  0
   10.1297   -1.6575   23.2324 C   0  0  0  0  0  0  0  0  0  0  0  0
    9.4684   -1.6929   26.7263 F   0  0  0  0  0  0  0  0  0  0  0  0
    7.7963   -7.7906   17.9837 C   0  0  0  0  0  0  0  0  0  0  0  0
   10.5884   -3.0725   16.7902 O   0  0  0  0  0  0  0  0  0  0  0  0
   10.4323   -5.3494   20.3516 C   0  0  0  0  0  0  0  0  0  0  0  0
    7.1156   -7.5454   16.8218 C   0  0  0  0  0  0  0  0  0  0  0  0
   10.3885   -4.4388   19.2773 C   0  0  0  0  0  0  0  0  0  0  0  0
    4.5160   -9.3822   15.0841 C   0  0  0  0  0  0  0  0  0  0  0  0
  1  3  4  0
  1 24  4  0
  2  6  4  0
  2 15  4  0
  3  5  4  0
  3  6  4  0
  4 21  4  0
  4 29  4  0
  5 15  4  0
  5 28  1  0
  6 16  4  0
  7 18  4  0
  7 26  4  0
  8 18  1  0
  8 19  4  0
  8 22  4  0
  9 12  4  0
  9 19  4  0
 10 12  4  0
 10 22  4  0
 11 20  4  0
 11 21  4  0
 12 23  1  0
 13 20  4  0
 13 29  4  0
 14 17  4  0
 14 28  4  0
 15 25  2  0
 16 27  4  0
 17 18  4  0
 20 27  1  0
 24 27  4  0
 26 28  4  0
M  END
$$$$

 Created by Python create_sdf_string function

 29 33  0  0  0  0  0  0  0  0999 V2000
    8.8270   -7.0288   18.4251 C   0  0  0  0  0  0  0  0  0  0  0  0
    9.1576   -4.6236   15.8860 O   0  0  0  0  0  0  0  0  0  0  0  0
    9.1509   -5.9108   17.7177 C   0  0  0  0  0  0  0  0  0  0  0  0
    3.6373   -9.5349   16.0582 N   0  0  0  0  0  0  0  0  0  0  0  0
    9.9275   -4.8001   18.0438 N   0  0  0  0  0  0  0  0  0  0  0  0
    8.5908   -5.7425   16.4412 C   0  0  0  0  0  0  0  0  0  0  0  0
   10.5993   -4.8981   21.6068 C   0  0  0  0  0  0  0  0  0  0  0  0
   10.4258   -3.0106   23.0998 C   0  0  0  0  0  0  0  0  0  0  0  0
   10.2148   -3.4364   25.4200 C   0  0  0  0  0  0  0  0  0  0  0  0
    9.7853   -1.1840   24.4927 C   0  0  0  0  0  0  0  0  0  0  0  0
    5.0276   -8.5227   17.5352 C   0  0  0  0  0  0  0  0  0  0  0  0
    9.8187   -2.0895   25.5800 C   0  0  0  0  0  0  0  0  0  0  0  0
    5.6473   -8.7216   15.3158 C   0  0  0  0  0  0  0  0  0  0  0  0
   10.7581   -3.1233   19.4720 N   0  0  0  0  0  0  0  0  0  0  0  0
    9.9571   -4.0573   16.8866 C   0  0  0  0  0  0  0  0  0  0  0  0
    7.6213   -6.5618   16.0087 C   0  0  0  0  0  0  0  0  0  0  0  0
   10.8583   -2.6527   20.7222 C   0  0  0  0  0  0  0  0  0  0  0  0
   10.6412   -3.5089   21.7936 C   0  0  0  0  0  0  0  0  0  0  0  0
   10.4972   -3.8968   24.1589 C   0  0  0  0  0  0  0  0  0  0  0  0
    5.9260   -8.2736   16.5517 C   0  0  0  0  0  0  0  0  0  0  0  0
    3.8816   -9.1166   17.2493 C   0  0  0  0  0  0  0  0  0  0  0  0
   10.1297   -1.6575   23.2324 C   0  0  0  0  0  0  0  0  0  0  0  0
    9.4684   -1.6929   26.7263 F   0  0  0  0  0  0  0  0  0  0  0  0
    7.7963   -7.7906   17.9837 C   0  0  0  0  0  0  0  0  0  0  0  0
   10.5884   -3.0725   16.7902 O   0  0  0  0  0  0  0  0  0  0  0  0
   10.4323   -5.3494   20.3516 C   0  0  0  0  0  0  0  0  0  0  0  0
    7.1156   -7.5454   16.8218 C   0  0  0  0  0  0  0  0  0  0  0  0
   10.3885   -4.4388   19.2773 C   0  0  0  0  0  0  0  0  0  0  0  0
    4.5160   -9.3822   15.0841 C   0  0  0  0  0  0  0  0  0  0  0  0
  1  3  4  0
  1 24  4  0
  2  6  4  0
  2 15  4  0
  3  5  4  0
  3  6  4  0
  4 21  4  0
  4 29  4  0
  5 15  4  0
  5 28  1  0
  6 16  4  0
  7 18  4  0
  7 26  4  0
  8 18  1  0
  8 19  4  0
  8 22  4  0
  9 12  4  0
  9 19  4  0
 10 12  4  0
 10 22  4  0
 11 20  4  0
 11 21  4  0
 12 23  1  0
 13 20  4  0
 13 29  4  0
 14 17  4  0
 14 28  4  0
 15 25  2  0
 16 27  4  0
 17 18  4  0
 20 27  1  0
 24 27  4  0
 26 28  4  0
M  END
$$$$

 Created by Python create_sdf_string function

 29 33  0  0  0  0  0  0  0  0999 V2000
    8.8270   -7.0288   18.4251 C   0  0  0  0  0  0  0  0  0  0  0  0
    9.1576   -4.6236   15.8860 O   0  0  0  0  0  0  0  0  0  0  0  0
    9.1509   -5.9108   17.7177 C   0  0  0  0  0  0  0  0  0  0  0  0
    3.6373   -9.5349   16.0582 N   0  0  0  0  0  0  0  0  0  0  0  0
    9.9275   -4.8001   18.0438 N   0  0  0  0  0  0  0  0  0  0  0  0
    8.5908   -5.7425   16.4412 C   0  0  0  0  0  0  0  0  0  0  0  0
   10.5993   -4.8981   21.6068 C   0  0  0  0  0  0  0  0  0  0  0  0
   10.4258   -3.0106   23.0998 C   0  0  0  0  0  0  0  0  0  0  0  0
   10.2148   -3.4364   25.4200 C   0  0  0  0  0  0  0  0  0  0  0  0
    9.7853   -1.1840   24.4927 C   0  0  0  0  0  0  0  0  0  0  0  0
    5.0276   -8.5227   17.5352 C   0  0  0  0  0  0  0  0  0  0  0  0
    9.8187   -2.0895   25.5800 C   0  0  0  0  0  0  0  0  0  0  0  0
    5.6473   -8.7216   15.3158 C   0  0  0  0  0  0  0  0  0  0  0  0
   10.7581   -3.1233   19.4720 N   0  0  0  0  0  0  0  0  0  0  0  0
    9.9571   -4.0573   16.8866 C   0  0  0  0  0  0  0  0  0  0  0  0
    7.6213   -6.5618   16.0087 C   0  0  0  0  0  0  0  0  0  0  0  0
   10.8583   -2.6527   20.7222 C   0  0  0  0  0  0  0  0  0  0  0  0
   10.6412   -3.5089   21.7936 C   0  0  0  0  0  0  0  0  0  0  0  0
   10.4972   -3.8968   24.1589 C   0  0  0  0  0  0  0  0  0  0  0  0
    5.9260   -8.2736   16.5517 C   0  0  0  0  0  0  0  0  0  0  0  0
    3.8816   -9.1166   17.2493 C   0  0  0  0  0  0  0  0  0  0  0  0
   10.1297   -1.6575   23.2324 C   0  0  0  0  0  0  0  0  0  0  0  0
    9.4684   -1.6929   26.7263 F   0  0  0  0  0  0  0  0  0  0  0  0
    7.7963   -7.7906   17.9837 C   0  0  0  0  0  0  0  0  0  0  0  0
   10.5884   -3.0725   16.7902 O   0  0  0  0  0  0  0  0  0  0  0  0
   10.4323   -5.3494   20.3516 C   0  0  0  0  0  0  0  0  0  0  0  0
    7.1156   -7.5454   16.8218 C   0  0  0  0  0  0  0  0  0  0  0  0
   10.3885   -4.4388   19.2773 C   0  0  0  0  0  0  0  0  0  0  0  0
    4.5160   -9.3822   15.0841 C   0  0  0  0  0  0  0  0  0  0  0  0
  1  3  4  0
  1 24  4  0
  2  6  4  0
  2 15  4  0
  3  5  4  0
  3  6  4  0
  4 21  4  0
  4 29  4  0
  5 15  4  0
  5 28  1  0
  6 16  4  0
  7 18  4  0
  7 26  4  0
  8 18  1  0
  8 19  4  0
  8 22  4  0
  9 12  4  0
  9 19  4  0
 10 12  4  0
 10 22  4  0
 11 20  4  0
 11 21  4  0
 12 23  1  0
 13 20  4  0
 13 29  4  0
 14 17  4  0
 14 28  4  0
 15 25  2  0
 16 27  4  0
 17 18  4  0
 20 27  1  0
 24 27  4  0
 26 28  4  0
M  END
$$$$

 Created by Python create_sdf_string function

 29 33  0  0  0  0  0  0  0  0999 V2000
    8.8270   -7.0288   18.4251 C   0  0  0  0  0  0  0  0  0  0  0  0
    9.1576   -4.6236   15.8860 O   0  0  0  0  0  0  0  0  0  0  0  0
    9.1509   -5.9108   17.7177 C   0  0  0  0  0  0  0  0  0  0  0  0
    3.6373   -9.5349   16.0582 N   0  0  0  0  0  0  0  0  0  0  0  0
    9.9275   -4.8001   18.0438 N   0  0  0  0  0  0  0  0  0  0  0  0
    8.5908   -5.7425   16.4412 C   0  0  0  0  0  0  0  0  0  0  0  0
   10.5993   -4.8981   21.6068 C   0  0  0  0  0  0  0  0  0  0  0  0
   10.4258   -3.0106   23.0998 C   0  0  0  0  0  0  0  0  0  0  0  0
   10.2148   -3.4364   25.4200 C   0  0  0  0  0  0  0  0  0  0  0  0
    9.7853   -1.1840   24.4927 C   0  0  0  0  0  0  0  0  0  0  0  0
    5.0276   -8.5227   17.5352 C   0  0  0  0  0  0  0  0  0  0  0  0
    9.8187   -2.0895   25.5800 C   0  0  0  0  0  0  0  0  0  0  0  0
    5.6473   -8.7216   15.3158 C   0  0  0  0  0  0  0  0  0  0  0  0
   10.7581   -3.1233   19.4720 N   0  0  0  0  0  0  0  0  0  0  0  0
    9.9571   -4.0573   16.8866 C   0  0  0  0  0  0  0  0  0  0  0  0
    7.6213   -6.5618   16.0087 C   0  0  0  0  0  0  0  0  0  0  0  0
   10.8583   -2.6527   20.7222 C   0  0  0  0  0  0  0  0  0  0  0  0
   10.6412   -3.5089   21.7936 C   0  0  0  0  0  0  0  0  0  0  0  0
   10.4972   -3.8968   24.1589 C   0  0  0  0  0  0  0  0  0  0  0  0
    5.9260   -8.2736   16.5517 C   0  0  0  0  0  0  0  0  0  0  0  0
    3.8816   -9.1166   17.2493 C   0  0  0  0  0  0  0  0  0  0  0  0
   10.1297   -1.6575   23.2324 C   0  0  0  0  0  0  0  0  0  0  0  0
    9.4684   -1.6929   26.7263 F   0  0  0  0  0  0  0  0  0  0  0  0
    7.7963   -7.7906   17.9837 C   0  0  0  0  0  0  0  0  0  0  0  0
   10.5884   -3.0725   16.7902 O   0  0  0  0  0  0  0  0  0  0  0  0
   10.4323   -5.3494   20.3516 C   0  0  0  0  0  0  0  0  0  0  0  0
    7.1156   -7.5454   16.8218 C   0  0  0  0  0  0  0  0  0  0  0  0
   10.3885   -4.4388   19.2773 C   0  0  0  0  0  0  0  0  0  0  0  0
    4.5160   -9.3822   15.0841 C   0  0  0  0  0  0  0  0  0  0  0  0
  1  3  4  0
  1 24  4  0
  2  6  4  0
  2 15  4  0
  3  5  4  0
  3  6  4  0
  4 21  4  0
  4 29  4  0
  5 15  4  0
  5 28  1  0
  6 16  4  0
  7 18  4  0
  7 26  4  0
  8 18  1  0
  8 19  4  0
  8 22  4  0
  9 12  4  0
  9 19  4  0
 10 12  4  0
 10 22  4  0
 11 20  4  0
 11 21  4  0
 12 23  1  0
 13 20  4  0
 13 29  4  0
 14 17  4  0
 14 28  4  0
 15 25  2  0
 16 27  4  0
 17 18  4  0
 20 27  1  0
 24 27  4  0
 26 28  4  0
M  END
$$$$

 Created by Python create_sdf_string function

 29 33  0  0  0  0  0  0  0  0999 V2000
    8.8270   -7.0288   18.4251 C   0  0  0  0  0  0  0  0  0  0  0  0
    9.1576   -4.6236   15.8860 O   0  0  0  0  0  0  0  0  0  0  0  0
    9.1509   -5.9108   17.7177 C   0  0  0  0  0  0  0  0  0  0  0  0
    3.6373   -9.5349   16.0582 N   0  0  0  0  0  0  0  0  0  0  0  0
    9.9275   -4.8001   18.0438 N   0  0  0  0  0  0  0  0  0  0  0  0
    8.5908   -5.7425   16.4412 C   0  0  0  0  0  0  0  0  0  0  0  0
   10.5993   -4.8981   21.6068 C   0  0  0  0  0  0  0  0  0  0  0  0
   10.4258   -3.0106   23.0998 C   0  0  0  0  0  0  0  0  0  0  0  0
   10.2148   -3.4364   25.4200 C   0  0  0  0  0  0  0  0  0  0  0  0
    9.7853   -1.1840   24.4927 C   0  0  0  0  0  0  0  0  0  0  0  0
    5.0276   -8.5227   17.5352 C   0  0  0  0  0  0  0  0  0  0  0  0
    9.8187   -2.0895   25.5800 C   0  0  0  0  0  0  0  0  0  0  0  0
    5.6473   -8.7216   15.3158 C   0  0  0  0  0  0  0  0  0  0  0  0
   10.7581   -3.1233   19.4720 N   0  0  0  0  0  0  0  0  0  0  0  0
    9.9571   -4.0573   16.8866 C   0  0  0  0  0  0  0  0  0  0  0  0
    7.6213   -6.5618   16.0087 C   0  0  0  0  0  0  0  0  0  0  0  0
   10.8583   -2.6527   20.7222 C   0  0  0  0  0  0  0  0  0  0  0  0
   10.6412   -3.5089   21.7936 C   0  0  0  0  0  0  0  0  0  0  0  0
   10.4972   -3.8968   24.1589 C   0  0  0  0  0  0  0  0  0  0  0  0
    5.9260   -8.2736   16.5517 C   0  0  0  0  0  0  0  0  0  0  0  0
    3.8816   -9.1166   17.2493 C   0  0  0  0  0  0  0  0  0  0  0  0
   10.1297   -1.6575   23.2324 C   0  0  0  0  0  0  0  0  0  0  0  0
    9.4684   -1.6929   26.7263 F   0  0  0  0  0  0  0  0  0  0  0  0
    7.7963   -7.7906   17.9837 C   0  0  0  0  0  0  0  0  0  0  0  0
   10.5884   -3.0725   16.7902 O   0  0  0  0  0  0  0  0  0  0  0  0
   10.4323   -5.3494   20.3516 C   0  0  0  0  0  0  0  0  0  0  0  0
    7.1156   -7.5454   16.8218 C   0  0  0  0  0  0  0  0  0  0  0  0
   10.3885   -4.4388   19.2773 C   0  0  0  0  0  0  0  0  0  0  0  0
    4.5160   -9.3822   15.0841 C   0  0  0  0  0  0  0  0  0  0  0  0
  1  3  4  0
  1 24  4  0
  2  6  4  0
  2 15  4  0
  3  5  4  0
  3  6  4  0
  4 21  4  0
  4 29  4  0
  5 15  4  0
  5 28  1  0
  6 16  4  0
  7 18  4  0
  7 26  4  0
  8 18  1  0
  8 19  4  0
  8 22  4  0
  9 12  4  0
  9 19  4  0
 10 12  4  0
 10 22  4  0
 11 20  4  0
 11 21  4  0
 12 23  1  0
 13 20  4  0
 13 29  4  0
 14 17  4  0
 14 28  4  0
 15 25  2  0
 16 27  4  0
 17 18  4  0
 20 27  1  0
 24 27  4  0
 26 28  4  0
M  END
$$$$

 Created by Python create_sdf_string function

 29 33  0  0  0  0  0  0  0  0999 V2000
    8.8270   -7.0288   18.4251 C   0  0  0  0  0  0  0  0  0  0  0  0
    9.1576   -4.6236   15.8860 O   0  0  0  0  0  0  0  0  0  0  0  0
    9.1509   -5.9108   17.7177 C   0  0  0  0  0  0  0  0  0  0  0  0
    3.6373   -9.5349   16.0582 N   0  0  0  0  0  0  0  0  0  0  0  0
    9.9275   -4.8001   18.0438 N   0  0  0  0  0  0  0  0  0  0  0  0
    8.5908   -5.7425   16.4412 C   0  0  0  0  0  0  0  0  0  0  0  0
   10.5993   -4.8981   21.6068 C   0  0  0  0  0  0  0  0  0  0  0  0
   10.4258   -3.0106   23.0998 C   0  0  0  0  0  0  0  0  0  0  0  0
   10.2148   -3.4364   25.4200 C   0  0  0  0  0  0  0  0  0  0  0  0
    9.7853   -1.1840   24.4927 C   0  0  0  0  0  0  0  0  0  0  0  0
    5.0276   -8.5227   17.5352 C   0  0  0  0  0  0  0  0  0  0  0  0
    9.8187   -2.0895   25.5800 C   0  0  0  0  0  0  0  0  0  0  0  0
    5.6473   -8.7216   15.3158 C   0  0  0  0  0  0  0  0  0  0  0  0
   10.7581   -3.1233   19.4720 N   0  0  0  0  0  0  0  0  0  0  0  0
    9.9571   -4.0573   16.8866 C   0  0  0  0  0  0  0  0  0  0  0  0
    7.6213   -6.5618   16.0087 C   0  0  0  0  0  0  0  0  0  0  0  0
   10.8583   -2.6527   20.7222 C   0  0  0  0  0  0  0  0  0  0  0  0
   10.6412   -3.5089   21.7936 C   0  0  0  0  0  0  0  0  0  0  0  0
   10.4972   -3.8968   24.1589 C   0  0  0  0  0  0  0  0  0  0  0  0
    5.9260   -8.2736   16.5517 C   0  0  0  0  0  0  0  0  0  0  0  0
    3.8816   -9.1166   17.2493 C   0  0  0  0  0  0  0  0  0  0  0  0
   10.1297   -1.6575   23.2324 C   0  0  0  0  0  0  0  0  0  0  0  0
    9.4684   -1.6929   26.7263 F   0  0  0  0  0  0  0  0  0  0  0  0
    7.7963   -7.7906   17.9837 C   0  0  0  0  0  0  0  0  0  0  0  0
   10.5884   -3.0725   16.7902 O   0  0  0  0  0  0  0  0  0  0  0  0
   10.4323   -5.3494   20.3516 C   0  0  0  0  0  0  0  0  0  0  0  0
    7.1156   -7.5454   16.8218 C   0  0  0  0  0  0  0  0  0  0  0  0
   10.3885   -4.4388   19.2773 C   0  0  0  0  0  0  0  0  0  0  0  0
    4.5160   -9.3822   15.0841 C   0  0  0  0  0  0  0  0  0  0  0  0
  1  3  4  0
  1 24  4  0
  2  6  4  0
  2 15  4  0
  3  5  4  0
  3  6  4  0
  4 21  4  0
  4 29  4  0
  5 15  4  0
  5 28  1  0
  6 16  4  0
  7 18  4  0
  7 26  4  0
  8 18  1  0
  8 19  4  0
  8 22  4  0
  9 12  4  0
  9 19  4  0
 10 12  4  0
 10 22  4  0
 11 20  4  0
 11 21  4  0
 12 23  1  0
 13 20  4  0
 13 29  4  0
 14 17  4  0
 14 28  4  0
 15 25  2  0
 16 27  4  0
 17 18  4  0
 20 27  1  0
 24 27  4  0
 26 28  4  0
M  END
$$$$

 Created by Python create_sdf_string function

 29 33  0  0  0  0  0  0  0  0999 V2000
    8.8270   -7.0288   18.4251 C   0  0  0  0  0  0  0  0  0  0  0  0
    9.1576   -4.6236   15.8860 O   0  0  0  0  0  0  0  0  0  0  0  0
    9.1509   -5.9108   17.7177 C   0  0  0  0  0  0  0  0  0  0  0  0
    3.6373   -9.5349   16.0582 N   0  0  0  0  0  0  0  0  0  0  0  0
    9.9275   -4.8001   18.0438 N   0  0  0  0  0  0  0  0  0  0  0  0
    8.5908   -5.7425   16.4412 C   0  0  0  0  0  0  0  0  0  0  0  0
   10.5993   -4.8981   21.6068 C   0  0  0  0  0  0  0  0  0  0  0  0
   10.4258   -3.0106   23.0998 C   0  0  0  0  0  0  0  0  0  0  0  0
   10.2148   -3.4364   25.4200 C   0  0  0  0  0  0  0  0  0  0  0  0
    9.7853   -1.1840   24.4927 C   0  0  0  0  0  0  0  0  0  0  0  0
    5.0276   -8.5227   17.5352 C   0  0  0  0  0  0  0  0  0  0  0  0
    9.8187   -2.0895   25.5800 C   0  0  0  0  0  0  0  0  0  0  0  0
    5.6473   -8.7216   15.3158 C   0  0  0  0  0  0  0  0  0  0  0  0
   10.7581   -3.1233   19.4720 N   0  0  0  0  0  0  0  0  0  0  0  0
    9.9571   -4.0573   16.8866 C   0  0  0  0  0  0  0  0  0  0  0  0
    7.6213   -6.5618   16.0087 C   0  0  0  0  0  0  0  0  0  0  0  0
   10.8583   -2.6527   20.7222 C   0  0  0  0  0  0  0  0  0  0  0  0
   10.6412   -3.5089   21.7936 C   0  0  0  0  0  0  0  0  0  0  0  0
   10.4972   -3.8968   24.1589 C   0  0  0  0  0  0  0  0  0  0  0  0
    5.9260   -8.2736   16.5517 C   0  0  0  0  0  0  0  0  0  0  0  0
    3.8816   -9.1166   17.2493 C   0  0  0  0  0  0  0  0  0  0  0  0
   10.1297   -1.6575   23.2324 C   0  0  0  0  0  0  0  0  0  0  0  0
    9.4684   -1.6929   26.7263 F   0  0  0  0  0  0  0  0  0  0  0  0
    7.7963   -7.7906   17.9837 C   0  0  0  0  0  0  0  0  0  0  0  0
   10.5884   -3.0725   16.7902 O   0  0  0  0  0  0  0  0  0  0  0  0
   10.4323   -5.3494   20.3516 C   0  0  0  0  0  0  0  0  0  0  0  0
    7.1156   -7.5454   16.8218 C   0  0  0  0  0  0  0  0  0  0  0  0
   10.3885   -4.4388   19.2773 C   0  0  0  0  0  0  0  0  0  0  0  0
    4.5160   -9.3822   15.0841 C   0  0  0  0  0  0  0  0  0  0  0  0
  1  3  4  0
  1 24  4  0
  2  6  4  0
  2 15  4  0
  3  5  4  0
  3  6  4  0
  4 21  4  0
  4 29  4  0
  5 15  4  0
  5 28  1  0
  6 16  4  0
  7 18  4  0
  7 26  4  0
  8 18  1  0
  8 19  4  0
  8 22  4  0
  9 12  4  0
  9 19  4  0
 10 12  4  0
 10 22  4  0
 11 20  4  0
 11 21  4  0
 12 23  1  0
 13 20  4  0
 13 29  4  0
 14 17  4  0
 14 28  4  0
 15 25  2  0
 16 27  4  0
 17 18  4  0
 20 27  1  0
 24 27  4  0
 26 28  4  0
M  END
$$$$

 Created by Python create_sdf_string function

 29 33  0  0  0  0  0  0  0  0999 V2000
    8.8270   -7.0288   18.4251 C   0  0  0  0  0  0  0  0  0  0  0  0
    9.1576   -4.6236   15.8860 O   0  0  0  0  0  0  0  0  0  0  0  0
    9.1509   -5.9108   17.7177 C   0  0  0  0  0  0  0  0  0  0  0  0
    3.6373   -9.5349   16.0582 N   0  0  0  0  0  0  0  0  0  0  0  0
    9.9275   -4.8001   18.0438 N   0  0  0  0  0  0  0  0  0  0  0  0
    8.5908   -5.7425   16.4412 C   0  0  0  0  0  0  0  0  0  0  0  0
   10.5993   -4.8981   21.6068 C   0  0  0  0  0  0  0  0  0  0  0  0
   10.4258   -3.0106   23.0998 C   0  0  0  0  0  0  0  0  0  0  0  0
   10.2148   -3.4364   25.4200 C   0  0  0  0  0  0  0  0  0  0  0  0
    9.7853   -1.1840   24.4927 C   0  0  0  0  0  0  0  0  0  0  0  0
    5.0276   -8.5227   17.5352 C   0  0  0  0  0  0  0  0  0  0  0  0
    9.8187   -2.0895   25.5800 C   0  0  0  0  0  0  0  0  0  0  0  0
    5.6473   -8.7216   15.3158 C   0  0  0  0  0  0  0  0  0  0  0  0
   10.7581   -3.1233   19.4720 N   0  0  0  0  0  0  0  0  0  0  0  0
    9.9571   -4.0573   16.8866 C   0  0  0  0  0  0  0  0  0  0  0  0
    7.6213   -6.5618   16.0087 C   0  0  0  0  0  0  0  0  0  0  0  0
   10.8583   -2.6527   20.7222 C   0  0  0  0  0  0  0  0  0  0  0  0
   10.6412   -3.5089   21.7936 C   0  0  0  0  0  0  0  0  0  0  0  0
   10.4972   -3.8968   24.1589 C   0  0  0  0  0  0  0  0  0  0  0  0
    5.9260   -8.2736   16.5517 C   0  0  0  0  0  0  0  0  0  0  0  0
    3.8816   -9.1166   17.2493 C   0  0  0  0  0  0  0  0  0  0  0  0
   10.1297   -1.6575   23.2324 C   0  0  0  0  0  0  0  0  0  0  0  0
    9.4684   -1.6929   26.7263 F   0  0  0  0  0  0  0  0  0  0  0  0
    7.7963   -7.7906   17.9837 C   0  0  0  0  0  0  0  0  0  0  0  0
   10.5884   -3.0725   16.7902 O   0  0  0  0  0  0  0  0  0  0  0  0
   10.4323   -5.3494   20.3516 C   0  0  0  0  0  0  0  0  0  0  0  0
    7.1156   -7.5454   16.8218 C   0  0  0  0  0  0  0  0  0  0  0  0
   10.3885   -4.4388   19.2773 C   0  0  0  0  0  0  0  0  0  0  0  0
    4.5160   -9.3822   15.0841 C   0  0  0  0  0  0  0  0  0  0  0  0
  1  3  4  0
  1 24  4  0
  2  6  4  0
  2 15  4  0
  3  5  4  0
  3  6  4  0
  4 21  4  0
  4 29  4  0
  5 15  4  0
  5 28  1  0
  6 16  4  0
  7 18  4  0
  7 26  4  0
  8 18  1  0
  8 19  4  0
  8 22  4  0
  9 12  4  0
  9 19  4  0
 10 12  4  0
 10 22  4  0
 11 20  4  0
 11 21  4  0
 12 23  1  0
 13 20  4  0
 13 29  4  0
 14 17  4  0
 14 28  4  0
 15 25  2  0
 16 27  4  0
 17 18  4  0
 20 27  1  0
 24 27  4  0
 26 28  4  0
M  END
$$$$

 Created by Python create_sdf_string function

 29 33  0  0  0  0  0  0  0  0999 V2000
    8.8270   -7.0288   18.4251 C   0  0  0  0  0  0  0  0  0  0  0  0
    9.1576   -4.6236   15.8860 O   0  0  0  0  0  0  0  0  0  0  0  0
    9.1509   -5.9108   17.7177 C   0  0  0  0  0  0  0  0  0  0  0  0
    3.6373   -9.5349   16.0582 N   0  0  0  0  0  0  0  0  0  0  0  0
    9.9275   -4.8001   18.0438 N   0  0  0  0  0  0  0  0  0  0  0  0
    8.5908   -5.7425   16.4412 C   0  0  0  0  0  0  0  0  0  0  0  0
   10.5993   -4.8981   21.6068 C   0  0  0  0  0  0  0  0  0  0  0  0
   10.4258   -3.0106   23.0998 C   0  0  0  0  0  0  0  0  0  0  0  0
   10.2148   -3.4364   25.4200 C   0  0  0  0  0  0  0  0  0  0  0  0
    9.7853   -1.1840   24.4927 C   0  0  0  0  0  0  0  0  0  0  0  0
    5.0276   -8.5227   17.5352 C   0  0  0  0  0  0  0  0  0  0  0  0
    9.8187   -2.0895   25.5800 C   0  0  0  0  0  0  0  0  0  0  0  0
    5.6473   -8.7216   15.3158 C   0  0  0  0  0  0  0  0  0  0  0  0
   10.7581   -3.1233   19.4720 N   0  0  0  0  0  0  0  0  0  0  0  0
    9.9571   -4.0573   16.8866 C   0  0  0  0  0  0  0  0  0  0  0  0
    7.6213   -6.5618   16.0087 C   0  0  0  0  0  0  0  0  0  0  0  0
   10.8583   -2.6527   20.7222 C   0  0  0  0  0  0  0  0  0  0  0  0
   10.6412   -3.5089   21.7936 C   0  0  0  0  0  0  0  0  0  0  0  0
   10.4972   -3.8968   24.1589 C   0  0  0  0  0  0  0  0  0  0  0  0
    5.9260   -8.2736   16.5517 C   0  0  0  0  0  0  0  0  0  0  0  0
    3.8816   -9.1166   17.2493 C   0  0  0  0  0  0  0  0  0  0  0  0
   10.1297   -1.6575   23.2324 C   0  0  0  0  0  0  0  0  0  0  0  0
    9.4684   -1.6929   26.7263 F   0  0  0  0  0  0  0  0  0  0  0  0
    7.7963   -7.7906   17.9837 C   0  0  0  0  0  0  0  0  0  0  0  0
   10.5884   -3.0725   16.7902 O   0  0  0  0  0  0  0  0  0  0  0  0
   10.4323   -5.3494   20.3516 C   0  0  0  0  0  0  0  0  0  0  0  0
    7.1156   -7.5454   16.8218 C   0  0  0  0  0  0  0  0  0  0  0  0
   10.3885   -4.4388   19.2773 C   0  0  0  0  0  0  0  0  0  0  0  0
    4.5160   -9.3822   15.0841 C   0  0  0  0  0  0  0  0  0  0  0  0
  1  3  4  0
  1 24  4  0
  2  6  4  0
  2 15  4  0
  3  5  4  0
  3  6  4  0
  4 21  4  0
  4 29  4  0
  5 15  4  0
  5 28  1  0
  6 16  4  0
  7 18  4  0
  7 26  4  0
  8 18  1  0
  8 19  4  0
  8 22  4  0
  9 12  4  0
  9 19  4  0
 10 12  4  0
 10 22  4  0
 11 20  4  0
 11 21  4  0
 12 23  1  0
 13 20  4  0
 13 29  4  0
 14 17  4  0
 14 28  4  0
 15 25  2  0
 16 27  4  0
 17 18  4  0
 20 27  1  0
 24 27  4  0
 26 28  4  0
M  END
$$$$

 Created by Python create_sdf_string function

 29 33  0  0  0  0  0  0  0  0999 V2000
    8.8270   -7.0288   18.4251 C   0  0  0  0  0  0  0  0  0  0  0  0
    9.1576   -4.6236   15.8860 O   0  0  0  0  0  0  0  0  0  0  0  0
    9.1509   -5.9108   17.7177 C   0  0  0  0  0  0  0  0  0  0  0  0
    3.6373   -9.5349   16.0582 N   0  0  0  0  0  0  0  0  0  0  0  0
    9.9275   -4.8001   18.0438 N   0  0  0  0  0  0  0  0  0  0  0  0
    8.5908   -5.7425   16.4412 C   0  0  0  0  0  0  0  0  0  0  0  0
   10.5993   -4.8981   21.6068 C   0  0  0  0  0  0  0  0  0  0  0  0
   10.4258   -3.0106   23.0998 C   0  0  0  0  0  0  0  0  0  0  0  0
   10.2148   -3.4364   25.4200 C   0  0  0  0  0  0  0  0  0  0  0  0
    9.7853   -1.1840   24.4927 C   0  0  0  0  0  0  0  0  0  0  0  0
    5.0276   -8.5227   17.5352 C   0  0  0  0  0  0  0  0  0  0  0  0
    9.8187   -2.0895   25.5800 C   0  0  0  0  0  0  0  0  0  0  0  0
    5.6473   -8.7216   15.3158 C   0  0  0  0  0  0  0  0  0  0  0  0
   10.7581   -3.1233   19.4720 N   0  0  0  0  0  0  0  0  0  0  0  0
    9.9571   -4.0573   16.8866 C   0  0  0  0  0  0  0  0  0  0  0  0
    7.6213   -6.5618   16.0087 C   0  0  0  0  0  0  0  0  0  0  0  0
   10.8583   -2.6527   20.7222 C   0  0  0  0  0  0  0  0  0  0  0  0
   10.6412   -3.5089   21.7936 C   0  0  0  0  0  0  0  0  0  0  0  0
   10.4972   -3.8968   24.1589 C   0  0  0  0  0  0  0  0  0  0  0  0
    5.9260   -8.2736   16.5517 C   0  0  0  0  0  0  0  0  0  0  0  0
    3.8816   -9.1166   17.2493 C   0  0  0  0  0  0  0  0  0  0  0  0
   10.1297   -1.6575   23.2324 C   0  0  0  0  0  0  0  0  0  0  0  0
    9.4684   -1.6929   26.7263 F   0  0  0  0  0  0  0  0  0  0  0  0
    7.7963   -7.7906   17.9837 C   0  0  0  0  0  0  0  0  0  0  0  0
   10.5884   -3.0725   16.7902 O   0  0  0  0  0  0  0  0  0  0  0  0
   10.4323   -5.3494   20.3516 C   0  0  0  0  0  0  0  0  0  0  0  0
    7.1156   -7.5454   16.8218 C   0  0  0  0  0  0  0  0  0  0  0  0
   10.3885   -4.4388   19.2773 C   0  0  0  0  0  0  0  0  0  0  0  0
    4.5160   -9.3822   15.0841 C   0  0  0  0  0  0  0  0  0  0  0  0
  1  3  4  0
  1 24  4  0
  2  6  4  0
  2 15  4  0
  3  5  4  0
  3  6  4  0
  4 21  4  0
  4 29  4  0
  5 15  4  0
  5 28  1  0
  6 16  4  0
  7 18  4  0
  7 26  4  0
  8 18  1  0
  8 19  4  0
  8 22  4  0
  9 12  4  0
  9 19  4  0
 10 12  4  0
 10 22  4  0
 11 20  4  0
 11 21  4  0
 12 23  1  0
 13 20  4  0
 13 29  4  0
 14 17  4  0
 14 28  4  0
 15 25  2  0
 16 27  4  0
 17 18  4  0
 20 27  1  0
 24 27  4  0
 26 28  4  0
M  END
$$$$

 Created by Python create_sdf_string function

 29 33  0  0  0  0  0  0  0  0999 V2000
    8.8270   -7.0288   18.4251 C   0  0  0  0  0  0  0  0  0  0  0  0
    9.1576   -4.6236   15.8860 O   0  0  0  0  0  0  0  0  0  0  0  0
    9.1509   -5.9108   17.7177 C   0  0  0  0  0  0  0  0  0  0  0  0
    3.6373   -9.5349   16.0582 N   0  0  0  0  0  0  0  0  0  0  0  0
    9.9275   -4.8001   18.0438 N   0  0  0  0  0  0  0  0  0  0  0  0
    8.5908   -5.7425   16.4412 C   0  0  0  0  0  0  0  0  0  0  0  0
   10.5993   -4.8981   21.6068 C   0  0  0  0  0  0  0  0  0  0  0  0
   10.4258   -3.0106   23.0998 C   0  0  0  0  0  0  0  0  0  0  0  0
   10.2148   -3.4364   25.4200 C   0  0  0  0  0  0  0  0  0  0  0  0
    9.7853   -1.1840   24.4927 C   0  0  0  0  0  0  0  0  0  0  0  0
    5.0276   -8.5227   17.5352 C   0  0  0  0  0  0  0  0  0  0  0  0
    9.8187   -2.0895   25.5800 C   0  0  0  0  0  0  0  0  0  0  0  0
    5.6473   -8.7216   15.3158 C   0  0  0  0  0  0  0  0  0  0  0  0
   10.7581   -3.1233   19.4720 N   0  0  0  0  0  0  0  0  0  0  0  0
    9.9571   -4.0573   16.8866 C   0  0  0  0  0  0  0  0  0  0  0  0
    7.6213   -6.5618   16.0087 C   0  0  0  0  0  0  0  0  0  0  0  0
   10.8583   -2.6527   20.7222 C   0  0  0  0  0  0  0  0  0  0  0  0
   10.6412   -3.5089   21.7936 C   0  0  0  0  0  0  0  0  0  0  0  0
   10.4972   -3.8968   24.1589 C   0  0  0  0  0  0  0  0  0  0  0  0
    5.9260   -8.2736   16.5517 C   0  0  0  0  0  0  0  0  0  0  0  0
    3.8816   -9.1166   17.2493 C   0  0  0  0  0  0  0  0  0  0  0  0
   10.1297   -1.6575   23.2324 C   0  0  0  0  0  0  0  0  0  0  0  0
    9.4684   -1.6929   26.7263 F   0  0  0  0  0  0  0  0  0  0  0  0
    7.7963   -7.7906   17.9837 C   0  0  0  0  0  0  0  0  0  0  0  0
   10.5884   -3.0725   16.7902 O   0  0  0  0  0  0  0  0  0  0  0  0
   10.4323   -5.3494   20.3516 C   0  0  0  0  0  0  0  0  0  0  0  0
    7.1156   -7.5454   16.8218 C   0  0  0  0  0  0  0  0  0  0  0  0
   10.3885   -4.4388   19.2773 C   0  0  0  0  0  0  0  0  0  0  0  0
    4.5160   -9.3822   15.0841 C   0  0  0  0  0  0  0  0  0  0  0  0
  1  3  4  0
  1 24  4  0
  2  6  4  0
  2 15  4  0
  3  5  4  0
  3  6  4  0
  4 21  4  0
  4 29  4  0
  5 15  4  0
  5 28  1  0
  6 16  4  0
  7 18  4  0
  7 26  4  0
  8 18  1  0
  8 19  4  0
  8 22  4  0
  9 12  4  0
  9 19  4  0
 10 12  4  0
 10 22  4  0
 11 20  4  0
 11 21  4  0
 12 23  1  0
 13 20  4  0
 13 29  4  0
 14 17  4  0
 14 28  4  0
 15 25  2  0
 16 27  4  0
 17 18  4  0
 20 27  1  0
 24 27  4  0
 26 28  4  0
M  END
$$$$

 Created by Python create_sdf_string function

 29 33  0  0  0  0  0  0  0  0999 V2000
    8.8270   -7.0288   18.4251 C   0  0  0  0  0  0  0  0  0  0  0  0
    9.1576   -4.6236   15.8860 O   0  0  0  0  0  0  0  0  0  0  0  0
    9.1509   -5.9108   17.7177 C   0  0  0  0  0  0  0  0  0  0  0  0
    3.6373   -9.5349   16.0582 N   0  0  0  0  0  0  0  0  0  0  0  0
    9.9275   -4.8001   18.0438 N   0  0  0  0  0  0  0  0  0  0  0  0
    8.5908   -5.7425   16.4412 C   0  0  0  0  0  0  0  0  0  0  0  0
   10.5993   -4.8981   21.6068 C   0  0  0  0  0  0  0  0  0  0  0  0
   10.4258   -3.0106   23.0998 C   0  0  0  0  0  0  0  0  0  0  0  0
   10.2148   -3.4364   25.4200 C   0  0  0  0  0  0  0  0  0  0  0  0
    9.7853   -1.1840   24.4927 C   0  0  0  0  0  0  0  0  0  0  0  0
    5.0276   -8.5227   17.5352 C   0  0  0  0  0  0  0  0  0  0  0  0
    9.8187   -2.0895   25.5800 C   0  0  0  0  0  0  0  0  0  0  0  0
    5.6473   -8.7216   15.3158 C   0  0  0  0  0  0  0  0  0  0  0  0
   10.7581   -3.1233   19.4720 N   0  0  0  0  0  0  0  0  0  0  0  0
    9.9571   -4.0573   16.8866 C   0  0  0  0  0  0  0  0  0  0  0  0
    7.6213   -6.5618   16.0087 C   0  0  0  0  0  0  0  0  0  0  0  0
   10.8583   -2.6527   20.7222 C   0  0  0  0  0  0  0  0  0  0  0  0
   10.6412   -3.5089   21.7936 C   0  0  0  0  0  0  0  0  0  0  0  0
   10.4972   -3.8968   24.1589 C   0  0  0  0  0  0  0  0  0  0  0  0
    5.9260   -8.2736   16.5517 C   0  0  0  0  0  0  0  0  0  0  0  0
    3.8816   -9.1166   17.2493 C   0  0  0  0  0  0  0  0  0  0  0  0
   10.1297   -1.6575   23.2324 C   0  0  0  0  0  0  0  0  0  0  0  0
    9.4684   -1.6929   26.7263 F   0  0  0  0  0  0  0  0  0  0  0  0
    7.7963   -7.7906   17.9837 C   0  0  0  0  0  0  0  0  0  0  0  0
   10.5884   -3.0725   16.7902 O   0  0  0  0  0  0  0  0  0  0  0  0
   10.4323   -5.3494   20.3516 C   0  0  0  0  0  0  0  0  0  0  0  0
    7.1156   -7.5454   16.8218 C   0  0  0  0  0  0  0  0  0  0  0  0
   10.3885   -4.4388   19.2773 C   0  0  0  0  0  0  0  0  0  0  0  0
    4.5160   -9.3822   15.0841 C   0  0  0  0  0  0  0  0  0  0  0  0
  1  3  4  0
  1 24  4  0
  2  6  4  0
  2 15  4  0
  3  5  4  0
  3  6  4  0
  4 21  4  0
  4 29  4  0
  5 15  4  0
  5 28  1  0
  6 16  4  0
  7 18  4  0
  7 26  4  0
  8 18  1  0
  8 19  4  0
  8 22  4  0
  9 12  4  0
  9 19  4  0
 10 12  4  0
 10 22  4  0
 11 20  4  0
 11 21  4  0
 12 23  1  0
 13 20  4  0
 13 29  4  0
 14 17  4  0
 14 28  4  0
 15 25  2  0
 16 27  4  0
 17 18  4  0
 20 27  1  0
 24 27  4  0
 26 28  4  0
M  END
$$$$

 Created by Python create_sdf_string function

 29 33  0  0  0  0  0  0  0  0999 V2000
    8.8270   -7.0288   18.4251 C   0  0  0  0  0  0  0  0  0  0  0  0
    9.1576   -4.6236   15.8860 O   0  0  0  0  0  0  0  0  0  0  0  0
    9.1509   -5.9108   17.7177 C   0  0  0  0  0  0  0  0  0  0  0  0
    3.6373   -9.5349   16.0582 N   0  0  0  0  0  0  0  0  0  0  0  0
    9.9275   -4.8001   18.0438 N   0  0  0  0  0  0  0  0  0  0  0  0
    8.5908   -5.7425   16.4412 C   0  0  0  0  0  0  0  0  0  0  0  0
   10.5993   -4.8981   21.6068 C   0  0  0  0  0  0  0  0  0  0  0  0
   10.4258   -3.0106   23.0998 C   0  0  0  0  0  0  0  0  0  0  0  0
   10.2148   -3.4364   25.4200 C   0  0  0  0  0  0  0  0  0  0  0  0
    9.7853   -1.1840   24.4927 C   0  0  0  0  0  0  0  0  0  0  0  0
    5.0276   -8.5227   17.5352 C   0  0  0  0  0  0  0  0  0  0  0  0
    9.8187   -2.0895   25.5800 C   0  0  0  0  0  0  0  0  0  0  0  0
    5.6473   -8.7216   15.3158 C   0  0  0  0  0  0  0  0  0  0  0  0
   10.7581   -3.1233   19.4720 N   0  0  0  0  0  0  0  0  0  0  0  0
    9.9571   -4.0573   16.8866 C   0  0  0  0  0  0  0  0  0  0  0  0
    7.6213   -6.5618   16.0087 C   0  0  0  0  0  0  0  0  0  0  0  0
   10.8583   -2.6527   20.7222 C   0  0  0  0  0  0  0  0  0  0  0  0
   10.6412   -3.5089   21.7936 C   0  0  0  0  0  0  0  0  0  0  0  0
   10.4972   -3.8968   24.1589 C   0  0  0  0  0  0  0  0  0  0  0  0
    5.9260   -8.2736   16.5517 C   0  0  0  0  0  0  0  0  0  0  0  0
    3.8816   -9.1166   17.2493 C   0  0  0  0  0  0  0  0  0  0  0  0
   10.1297   -1.6575   23.2324 C   0  0  0  0  0  0  0  0  0  0  0  0
    9.4684   -1.6929   26.7263 F   0  0  0  0  0  0  0  0  0  0  0  0
    7.7963   -7.7906   17.9837 C   0  0  0  0  0  0  0  0  0  0  0  0
   10.5884   -3.0725   16.7902 O   0  0  0  0  0  0  0  0  0  0  0  0
   10.4323   -5.3494   20.3516 C   0  0  0  0  0  0  0  0  0  0  0  0
    7.1156   -7.5454   16.8218 C   0  0  0  0  0  0  0  0  0  0  0  0
   10.3885   -4.4388   19.2773 C   0  0  0  0  0  0  0  0  0  0  0  0
    4.5160   -9.3822   15.0841 C   0  0  0  0  0  0  0  0  0  0  0  0
  1  3  4  0
  1 24  4  0
  2  6  4  0
  2 15  4  0
  3  5  4  0
  3  6  4  0
  4 21  4  0
  4 29  4  0
  5 15  4  0
  5 28  1  0
  6 16  4  0
  7 18  4  0
  7 26  4  0
  8 18  1  0
  8 19  4  0
  8 22  4  0
  9 12  4  0
  9 19  4  0
 10 12  4  0
 10 22  4  0
 11 20  4  0
 11 21  4  0
 12 23  1  0
 13 20  4  0
 13 29  4  0
 14 17  4  0
 14 28  4  0
 15 25  2  0
 16 27  4  0
 17 18  4  0
 20 27  1  0
 24 27  4  0
 26 28  4  0
M  END
$$$$

 Created by Python create_sdf_string function

 29 33  0  0  0  0  0  0  0  0999 V2000
    8.8270   -7.0288   18.4251 C   0  0  0  0  0  0  0  0  0  0  0  0
    9.1576   -4.6236   15.8860 O   0  0  0  0  0  0  0  0  0  0  0  0
    9.1509   -5.9108   17.7177 C   0  0  0  0  0  0  0  0  0  0  0  0
    3.6373   -9.5349   16.0582 N   0  0  0  0  0  0  0  0  0  0  0  0
    9.9275   -4.8001   18.0438 N   0  0  0  0  0  0  0  0  0  0  0  0
    8.5908   -5.7425   16.4412 C   0  0  0  0  0  0  0  0  0  0  0  0
   10.5993   -4.8981   21.6068 C   0  0  0  0  0  0  0  0  0  0  0  0
   10.4258   -3.0106   23.0998 C   0  0  0  0  0  0  0  0  0  0  0  0
   10.2148   -3.4364   25.4200 C   0  0  0  0  0  0  0  0  0  0  0  0
    9.7853   -1.1840   24.4927 C   0  0  0  0  0  0  0  0  0  0  0  0
    5.0276   -8.5227   17.5352 C   0  0  0  0  0  0  0  0  0  0  0  0
    9.8187   -2.0895   25.5800 C   0  0  0  0  0  0  0  0  0  0  0  0
    5.6473   -8.7216   15.3158 C   0  0  0  0  0  0  0  0  0  0  0  0
   10.7581   -3.1233   19.4720 N   0  0  0  0  0  0  0  0  0  0  0  0
    9.9571   -4.0573   16.8866 C   0  0  0  0  0  0  0  0  0  0  0  0
    7.6213   -6.5618   16.0087 C   0  0  0  0  0  0  0  0  0  0  0  0
   10.8583   -2.6527   20.7222 C   0  0  0  0  0  0  0  0  0  0  0  0
   10.6412   -3.5089   21.7936 C   0  0  0  0  0  0  0  0  0  0  0  0
   10.4972   -3.8968   24.1589 C   0  0  0  0  0  0  0  0  0  0  0  0
    5.9260   -8.2736   16.5517 C   0  0  0  0  0  0  0  0  0  0  0  0
    3.8816   -9.1166   17.2493 C   0  0  0  0  0  0  0  0  0  0  0  0
   10.1297   -1.6575   23.2324 C   0  0  0  0  0  0  0  0  0  0  0  0
    9.4684   -1.6929   26.7263 F   0  0  0  0  0  0  0  0  0  0  0  0
    7.7963   -7.7906   17.9837 C   0  0  0  0  0  0  0  0  0  0  0  0
   10.5884   -3.0725   16.7902 O   0  0  0  0  0  0  0  0  0  0  0  0
   10.4323   -5.3494   20.3516 C   0  0  0  0  0  0  0  0  0  0  0  0
    7.1156   -7.5454   16.8218 C   0  0  0  0  0  0  0  0  0  0  0  0
   10.3885   -4.4388   19.2773 C   0  0  0  0  0  0  0  0  0  0  0  0
    4.5160   -9.3822   15.0841 C   0  0  0  0  0  0  0  0  0  0  0  0
  1  3  4  0
  1 24  4  0
  2  6  4  0
  2 15  4  0
  3  5  4  0
  3  6  4  0
  4 21  4  0
  4 29  4  0
  5 15  4  0
  5 28  1  0
  6 16  4  0
  7 18  4  0
  7 26  4  0
  8 18  1  0
  8 19  4  0
  8 22  4  0
  9 12  4  0
  9 19  4  0
 10 12  4  0
 10 22  4  0
 11 20  4  0
 11 21  4  0
 12 23  1  0
 13 20  4  0
 13 29  4  0
 14 17  4  0
 14 28  4  0
 15 25  2  0
 16 27  4  0
 17 18  4  0
 20 27  1  0
 24 27  4  0
 26 28  4  0
M  END
$$$$

 Created by Python create_sdf_string function

 29 33  0  0  0  0  0  0  0  0999 V2000
    8.8270   -7.0288   18.4251 C   0  0  0  0  0  0  0  0  0  0  0  0
    9.1576   -4.6236   15.8860 O   0  0  0  0  0  0  0  0  0  0  0  0
    9.1509   -5.9108   17.7177 C   0  0  0  0  0  0  0  0  0  0  0  0
    3.6373   -9.5349   16.0582 N   0  0  0  0  0  0  0  0  0  0  0  0
    9.9275   -4.8001   18.0438 N   0  0  0  0  0  0  0  0  0  0  0  0
    8.5908   -5.7425   16.4412 C   0  0  0  0  0  0  0  0  0  0  0  0
   10.5993   -4.8981   21.6068 C   0  0  0  0  0  0  0  0  0  0  0  0
   10.4258   -3.0106   23.0998 C   0  0  0  0  0  0  0  0  0  0  0  0
   10.2148   -3.4364   25.4200 C   0  0  0  0  0  0  0  0  0  0  0  0
    9.7853   -1.1840   24.4927 C   0  0  0  0  0  0  0  0  0  0  0  0
    5.0276   -8.5227   17.5352 C   0  0  0  0  0  0  0  0  0  0  0  0
    9.8187   -2.0895   25.5800 C   0  0  0  0  0  0  0  0  0  0  0  0
    5.6473   -8.7216   15.3158 C   0  0  0  0  0  0  0  0  0  0  0  0
   10.7581   -3.1233   19.4720 N   0  0  0  0  0  0  0  0  0  0  0  0
    9.9571   -4.0573   16.8866 C   0  0  0  0  0  0  0  0  0  0  0  0
    7.6213   -6.5618   16.0087 C   0  0  0  0  0  0  0  0  0  0  0  0
   10.8583   -2.6527   20.7222 C   0  0  0  0  0  0  0  0  0  0  0  0
   10.6412   -3.5089   21.7936 C   0  0  0  0  0  0  0  0  0  0  0  0
   10.4972   -3.8968   24.1589 C   0  0  0  0  0  0  0  0  0  0  0  0
    5.9260   -8.2736   16.5517 C   0  0  0  0  0  0  0  0  0  0  0  0
    3.8816   -9.1166   17.2493 C   0  0  0  0  0  0  0  0  0  0  0  0
   10.1297   -1.6575   23.2324 C   0  0  0  0  0  0  0  0  0  0  0  0
    9.4684   -1.6929   26.7263 F   0  0  0  0  0  0  0  0  0  0  0  0
    7.7963   -7.7906   17.9837 C   0  0  0  0  0  0  0  0  0  0  0  0
   10.5884   -3.0725   16.7902 O   0  0  0  0  0  0  0  0  0  0  0  0
   10.4323   -5.3494   20.3516 C   0  0  0  0  0  0  0  0  0  0  0  0
    7.1156   -7.5454   16.8218 C   0  0  0  0  0  0  0  0  0  0  0  0
   10.3885   -4.4388   19.2773 C   0  0  0  0  0  0  0  0  0  0  0  0
    4.5160   -9.3822   15.0841 C   0  0  0  0  0  0  0  0  0  0  0  0
  1  3  4  0
  1 24  4  0
  2  6  4  0
  2 15  4  0
  3  5  4  0
  3  6  4  0
  4 21  4  0
  4 29  4  0
  5 15  4  0
  5 28  1  0
  6 16  4  0
  7 18  4  0
  7 26  4  0
  8 18  1  0
  8 19  4  0
  8 22  4  0
  9 12  4  0
  9 19  4  0
 10 12  4  0
 10 22  4  0
 11 20  4  0
 11 21  4  0
 12 23  1  0
 13 20  4  0
 13 29  4  0
 14 17  4  0
 14 28  4  0
 15 25  2  0
 16 27  4  0
 17 18  4  0
 20 27  1  0
 24 27  4  0
 26 28  4  0
M  END
$$$$

 Created by Python create_sdf_string function

 29 33  0  0  0  0  0  0  0  0999 V2000
    8.8270   -7.0288   18.4251 C   0  0  0  0  0  0  0  0  0  0  0  0
    9.1576   -4.6236   15.8860 O   0  0  0  0  0  0  0  0  0  0  0  0
    9.1509   -5.9108   17.7177 C   0  0  0  0  0  0  0  0  0  0  0  0
    3.6373   -9.5349   16.0582 N   0  0  0  0  0  0  0  0  0  0  0  0
    9.9275   -4.8001   18.0438 N   0  0  0  0  0  0  0  0  0  0  0  0
    8.5908   -5.7425   16.4412 C   0  0  0  0  0  0  0  0  0  0  0  0
   10.5993   -4.8981   21.6068 C   0  0  0  0  0  0  0  0  0  0  0  0
   10.4258   -3.0106   23.0998 C   0  0  0  0  0  0  0  0  0  0  0  0
   10.2148   -3.4364   25.4200 C   0  0  0  0  0  0  0  0  0  0  0  0
    9.7853   -1.1840   24.4927 C   0  0  0  0  0  0  0  0  0  0  0  0
    5.0276   -8.5227   17.5352 C   0  0  0  0  0  0  0  0  0  0  0  0
    9.8187   -2.0895   25.5800 C   0  0  0  0  0  0  0  0  0  0  0  0
    5.6473   -8.7216   15.3158 C   0  0  0  0  0  0  0  0  0  0  0  0
   10.7581   -3.1233   19.4720 N   0  0  0  0  0  0  0  0  0  0  0  0
    9.9571   -4.0573   16.8866 C   0  0  0  0  0  0  0  0  0  0  0  0
    7.6213   -6.5618   16.0087 C   0  0  0  0  0  0  0  0  0  0  0  0
   10.8583   -2.6527   20.7222 C   0  0  0  0  0  0  0  0  0  0  0  0
   10.6412   -3.5089   21.7936 C   0  0  0  0  0  0  0  0  0  0  0  0
   10.4972   -3.8968   24.1589 C   0  0  0  0  0  0  0  0  0  0  0  0
    5.9260   -8.2736   16.5517 C   0  0  0  0  0  0  0  0  0  0  0  0
    3.8816   -9.1166   17.2493 C   0  0  0  0  0  0  0  0  0  0  0  0
   10.1297   -1.6575   23.2324 C   0  0  0  0  0  0  0  0  0  0  0  0
    9.4684   -1.6929   26.7263 F   0  0  0  0  0  0  0  0  0  0  0  0
    7.7963   -7.7906   17.9837 C   0  0  0  0  0  0  0  0  0  0  0  0
   10.5884   -3.0725   16.7902 O   0  0  0  0  0  0  0  0  0  0  0  0
   10.4323   -5.3494   20.3516 C   0  0  0  0  0  0  0  0  0  0  0  0
    7.1156   -7.5454   16.8218 C   0  0  0  0  0  0  0  0  0  0  0  0
   10.3885   -4.4388   19.2773 C   0  0  0  0  0  0  0  0  0  0  0  0
    4.5160   -9.3822   15.0841 C   0  0  0  0  0  0  0  0  0  0  0  0
  1  3  4  0
  1 24  4  0
  2  6  4  0
  2 15  4  0
  3  5  4  0
  3  6  4  0
  4 21  4  0
  4 29  4  0
  5 15  4  0
  5 28  1  0
  6 16  4  0
  7 18  4  0
  7 26  4  0
  8 18  1  0
  8 19  4  0
  8 22  4  0
  9 12  4  0
  9 19  4  0
 10 12  4  0
 10 22  4  0
 11 20  4  0
 11 21  4  0
 12 23  1  0
 13 20  4  0
 13 29  4  0
 14 17  4  0
 14 28  4  0
 15 25  2  0
 16 27  4  0
 17 18  4  0
 20 27  1  0
 24 27  4  0
 26 28  4  0
M  END
$$$$

 Created by Python create_sdf_string function

 29 33  0  0  0  0  0  0  0  0999 V2000
    8.8270   -7.0288   18.4251 C   0  0  0  0  0  0  0  0  0  0  0  0
    9.1576   -4.6236   15.8860 O   0  0  0  0  0  0  0  0  0  0  0  0
    9.1509   -5.9108   17.7177 C   0  0  0  0  0  0  0  0  0  0  0  0
    3.6373   -9.5349   16.0582 N   0  0  0  0  0  0  0  0  0  0  0  0
    9.9275   -4.8001   18.0438 N   0  0  0  0  0  0  0  0  0  0  0  0
    8.5908   -5.7425   16.4412 C   0  0  0  0  0  0  0  0  0  0  0  0
   10.5993   -4.8981   21.6068 C   0  0  0  0  0  0  0  0  0  0  0  0
   10.4258   -3.0106   23.0998 C   0  0  0  0  0  0  0  0  0  0  0  0
   10.2148   -3.4364   25.4200 C   0  0  0  0  0  0  0  0  0  0  0  0
    9.7853   -1.1840   24.4927 C   0  0  0  0  0  0  0  0  0  0  0  0
    5.0276   -8.5227   17.5352 C   0  0  0  0  0  0  0  0  0  0  0  0
    9.8187   -2.0895   25.5800 C   0  0  0  0  0  0  0  0  0  0  0  0
    5.6473   -8.7216   15.3158 C   0  0  0  0  0  0  0  0  0  0  0  0
   10.7581   -3.1233   19.4720 N   0  0  0  0  0  0  0  0  0  0  0  0
    9.9571   -4.0573   16.8866 C   0  0  0  0  0  0  0  0  0  0  0  0
    7.6213   -6.5618   16.0087 C   0  0  0  0  0  0  0  0  0  0  0  0
   10.8583   -2.6527   20.7222 C   0  0  0  0  0  0  0  0  0  0  0  0
   10.6412   -3.5089   21.7936 C   0  0  0  0  0  0  0  0  0  0  0  0
   10.4972   -3.8968   24.1589 C   0  0  0  0  0  0  0  0  0  0  0  0
    5.9260   -8.2736   16.5517 C   0  0  0  0  0  0  0  0  0  0  0  0
    3.8816   -9.1166   17.2493 C   0  0  0  0  0  0  0  0  0  0  0  0
   10.1297   -1.6575   23.2324 C   0  0  0  0  0  0  0  0  0  0  0  0
    9.4684   -1.6929   26.7263 F   0  0  0  0  0  0  0  0  0  0  0  0
    7.7963   -7.7906   17.9837 C   0  0  0  0  0  0  0  0  0  0  0  0
   10.5884   -3.0725   16.7902 O   0  0  0  0  0  0  0  0  0  0  0  0
   10.4323   -5.3494   20.3516 C   0  0  0  0  0  0  0  0  0  0  0  0
    7.1156   -7.5454   16.8218 C   0  0  0  0  0  0  0  0  0  0  0  0
   10.3885   -4.4388   19.2773 C   0  0  0  0  0  0  0  0  0  0  0  0
    4.5160   -9.3822   15.0841 C   0  0  0  0  0  0  0  0  0  0  0  0
  1  3  4  0
  1 24  4  0
  2  6  4  0
  2 15  4  0
  3  5  4  0
  3  6  4  0
  4 21  4  0
  4 29  4  0
  5 15  4  0
  5 28  1  0
  6 16  4  0
  7 18  4  0
  7 26  4  0
  8 18  1  0
  8 19  4  0
  8 22  4  0
  9 12  4  0
  9 19  4  0
 10 12  4  0
 10 22  4  0
 11 20  4  0
 11 21  4  0
 12 23  1  0
 13 20  4  0
 13 29  4  0
 14 17  4  0
 14 28  4  0
 15 25  2  0
 16 27  4  0
 17 18  4  0
 20 27  1  0
 24 27  4  0
 26 28  4  0
M  END
$$$$

 Created by Python create_sdf_string function

 29 33  0  0  0  0  0  0  0  0999 V2000
    8.8270   -7.0288   18.4251 C   0  0  0  0  0  0  0  0  0  0  0  0
    9.1576   -4.6236   15.8860 O   0  0  0  0  0  0  0  0  0  0  0  0
    9.1509   -5.9108   17.7177 C   0  0  0  0  0  0  0  0  0  0  0  0
    3.6373   -9.5349   16.0582 N   0  0  0  0  0  0  0  0  0  0  0  0
    9.9275   -4.8001   18.0438 N   0  0  0  0  0  0  0  0  0  0  0  0
    8.5908   -5.7425   16.4412 C   0  0  0  0  0  0  0  0  0  0  0  0
   10.5993   -4.8981   21.6068 C   0  0  0  0  0  0  0  0  0  0  0  0
   10.4258   -3.0106   23.0998 C   0  0  0  0  0  0  0  0  0  0  0  0
   10.2148   -3.4364   25.4200 C   0  0  0  0  0  0  0  0  0  0  0  0
    9.7853   -1.1840   24.4927 C   0  0  0  0  0  0  0  0  0  0  0  0
    5.0276   -8.5227   17.5352 C   0  0  0  0  0  0  0  0  0  0  0  0
    9.8187   -2.0895   25.5800 C   0  0  0  0  0  0  0  0  0  0  0  0
    5.6473   -8.7216   15.3158 C   0  0  0  0  0  0  0  0  0  0  0  0
   10.7581   -3.1233   19.4720 N   0  0  0  0  0  0  0  0  0  0  0  0
    9.9571   -4.0573   16.8866 C   0  0  0  0  0  0  0  0  0  0  0  0
    7.6213   -6.5618   16.0087 C   0  0  0  0  0  0  0  0  0  0  0  0
   10.8583   -2.6527   20.7222 C   0  0  0  0  0  0  0  0  0  0  0  0
   10.6412   -3.5089   21.7936 C   0  0  0  0  0  0  0  0  0  0  0  0
   10.4972   -3.8968   24.1589 C   0  0  0  0  0  0  0  0  0  0  0  0
    5.9260   -8.2736   16.5517 C   0  0  0  0  0  0  0  0  0  0  0  0
    3.8816   -9.1166   17.2493 C   0  0  0  0  0  0  0  0  0  0  0  0
   10.1297   -1.6575   23.2324 C   0  0  0  0  0  0  0  0  0  0  0  0
    9.4684   -1.6929   26.7263 F   0  0  0  0  0  0  0  0  0  0  0  0
    7.7963   -7.7906   17.9837 C   0  0  0  0  0  0  0  0  0  0  0  0
   10.5884   -3.0725   16.7902 O   0  0  0  0  0  0  0  0  0  0  0  0
   10.4323   -5.3494   20.3516 C   0  0  0  0  0  0  0  0  0  0  0  0
    7.1156   -7.5454   16.8218 C   0  0  0  0  0  0  0  0  0  0  0  0
   10.3885   -4.4388   19.2773 C   0  0  0  0  0  0  0  0  0  0  0  0
    4.5160   -9.3822   15.0841 C   0  0  0  0  0  0  0  0  0  0  0  0
  1  3  4  0
  1 24  4  0
  2  6  4  0
  2 15  4  0
  3  5  4  0
  3  6  4  0
  4 21  4  0
  4 29  4  0
  5 15  4  0
  5 28  1  0
  6 16  4  0
  7 18  4  0
  7 26  4  0
  8 18  1  0
  8 19  4  0
  8 22  4  0
  9 12  4  0
  9 19  4  0
 10 12  4  0
 10 22  4  0
 11 20  4  0
 11 21  4  0
 12 23  1  0
 13 20  4  0
 13 29  4  0
 14 17  4  0
 14 28  4  0
 15 25  2  0
 16 27  4  0
 17 18  4  0
 20 27  1  0
 24 27  4  0
 26 28  4  0
M  END
$$$$

 Created by Python create_sdf_string function

 29 33  0  0  0  0  0  0  0  0999 V2000
    8.8270   -7.0288   18.4251 C   0  0  0  0  0  0  0  0  0  0  0  0
    9.1576   -4.6236   15.8860 O   0  0  0  0  0  0  0  0  0  0  0  0
    9.1509   -5.9108   17.7177 C   0  0  0  0  0  0  0  0  0  0  0  0
    3.6373   -9.5349   16.0582 N   0  0  0  0  0  0  0  0  0  0  0  0
    9.9275   -4.8001   18.0438 N   0  0  0  0  0  0  0  0  0  0  0  0
    8.5908   -5.7425   16.4412 C   0  0  0  0  0  0  0  0  0  0  0  0
   10.5993   -4.8981   21.6068 C   0  0  0  0  0  0  0  0  0  0  0  0
   10.4258   -3.0106   23.0998 C   0  0  0  0  0  0  0  0  0  0  0  0
   10.2148   -3.4364   25.4200 C   0  0  0  0  0  0  0  0  0  0  0  0
    9.7853   -1.1840   24.4927 C   0  0  0  0  0  0  0  0  0  0  0  0
    5.0276   -8.5227   17.5352 C   0  0  0  0  0  0  0  0  0  0  0  0
    9.8187   -2.0895   25.5800 C   0  0  0  0  0  0  0  0  0  0  0  0
    5.6473   -8.7216   15.3158 C   0  0  0  0  0  0  0  0  0  0  0  0
   10.7581   -3.1233   19.4720 N   0  0  0  0  0  0  0  0  0  0  0  0
    9.9571   -4.0573   16.8866 C   0  0  0  0  0  0  0  0  0  0  0  0
    7.6213   -6.5618   16.0087 C   0  0  0  0  0  0  0  0  0  0  0  0
   10.8583   -2.6527   20.7222 C   0  0  0  0  0  0  0  0  0  0  0  0
   10.6412   -3.5089   21.7936 C   0  0  0  0  0  0  0  0  0  0  0  0
   10.4972   -3.8968   24.1589 C   0  0  0  0  0  0  0  0  0  0  0  0
    5.9260   -8.2736   16.5517 C   0  0  0  0  0  0  0  0  0  0  0  0
    3.8816   -9.1166   17.2493 C   0  0  0  0  0  0  0  0  0  0  0  0
   10.1297   -1.6575   23.2324 C   0  0  0  0  0  0  0  0  0  0  0  0
    9.4684   -1.6929   26.7263 F   0  0  0  0  0  0  0  0  0  0  0  0
    7.7963   -7.7906   17.9837 C   0  0  0  0  0  0  0  0  0  0  0  0
   10.5884   -3.0725   16.7902 O   0  0  0  0  0  0  0  0  0  0  0  0
   10.4323   -5.3494   20.3516 C   0  0  0  0  0  0  0  0  0  0  0  0
    7.1156   -7.5454   16.8218 C   0  0  0  0  0  0  0  0  0  0  0  0
   10.3885   -4.4388   19.2773 C   0  0  0  0  0  0  0  0  0  0  0  0
    4.5160   -9.3822   15.0841 C   0  0  0  0  0  0  0  0  0  0  0  0
  1  3  4  0
  1 24  4  0
  2  6  4  0
  2 15  4  0
  3  5  4  0
  3  6  4  0
  4 21  4  0
  4 29  4  0
  5 15  4  0
  5 28  1  0
  6 16  4  0
  7 18  4  0
  7 26  4  0
  8 18  1  0
  8 19  4  0
  8 22  4  0
  9 12  4  0
  9 19  4  0
 10 12  4  0
 10 22  4  0
 11 20  4  0
 11 21  4  0
 12 23  1  0
 13 20  4  0
 13 29  4  0
 14 17  4  0
 14 28  4  0
 15 25  2  0
 16 27  4  0
 17 18  4  0
 20 27  1  0
 24 27  4  0
 26 28  4  0
M  END
$$$$

 Created by Python create_sdf_string function

 29 33  0  0  0  0  0  0  0  0999 V2000
    8.8270   -7.0288   18.4251 C   0  0  0  0  0  0  0  0  0  0  0  0
    9.1576   -4.6236   15.8860 O   0  0  0  0  0  0  0  0  0  0  0  0
    9.1509   -5.9108   17.7177 C   0  0  0  0  0  0  0  0  0  0  0  0
    3.6373   -9.5349   16.0582 N   0  0  0  0  0  0  0  0  0  0  0  0
    9.9275   -4.8001   18.0438 N   0  0  0  0  0  0  0  0  0  0  0  0
    8.5908   -5.7425   16.4412 C   0  0  0  0  0  0  0  0  0  0  0  0
   10.5993   -4.8981   21.6068 C   0  0  0  0  0  0  0  0  0  0  0  0
   10.4258   -3.0106   23.0998 C   0  0  0  0  0  0  0  0  0  0  0  0
   10.2148   -3.4364   25.4200 C   0  0  0  0  0  0  0  0  0  0  0  0
    9.7853   -1.1840   24.4927 C   0  0  0  0  0  0  0  0  0  0  0  0
    5.0276   -8.5227   17.5352 C   0  0  0  0  0  0  0  0  0  0  0  0
    9.8187   -2.0895   25.5800 C   0  0  0  0  0  0  0  0  0  0  0  0
    5.6473   -8.7216   15.3158 C   0  0  0  0  0  0  0  0  0  0  0  0
   10.7581   -3.1233   19.4720 N   0  0  0  0  0  0  0  0  0  0  0  0
    9.9571   -4.0573   16.8866 C   0  0  0  0  0  0  0  0  0  0  0  0
    7.6213   -6.5618   16.0087 C   0  0  0  0  0  0  0  0  0  0  0  0
   10.8583   -2.6527   20.7222 C   0  0  0  0  0  0  0  0  0  0  0  0
   10.6412   -3.5089   21.7936 C   0  0  0  0  0  0  0  0  0  0  0  0
   10.4972   -3.8968   24.1589 C   0  0  0  0  0  0  0  0  0  0  0  0
    5.9260   -8.2736   16.5517 C   0  0  0  0  0  0  0  0  0  0  0  0
    3.8816   -9.1166   17.2493 C   0  0  0  0  0  0  0  0  0  0  0  0
   10.1297   -1.6575   23.2324 C   0  0  0  0  0  0  0  0  0  0  0  0
    9.4684   -1.6929   26.7263 F   0  0  0  0  0  0  0  0  0  0  0  0
    7.7963   -7.7906   17.9837 C   0  0  0  0  0  0  0  0  0  0  0  0
   10.5884   -3.0725   16.7902 O   0  0  0  0  0  0  0  0  0  0  0  0
   10.4323   -5.3494   20.3516 C   0  0  0  0  0  0  0  0  0  0  0  0
    7.1156   -7.5454   16.8218 C   0  0  0  0  0  0  0  0  0  0  0  0
   10.3885   -4.4388   19.2773 C   0  0  0  0  0  0  0  0  0  0  0  0
    4.5160   -9.3822   15.0841 C   0  0  0  0  0  0  0  0  0  0  0  0
  1  3  4  0
  1 24  4  0
  2  6  4  0
  2 15  4  0
  3  5  4  0
  3  6  4  0
  4 21  4  0
  4 29  4  0
  5 15  4  0
  5 28  1  0
  6 16  4  0
  7 18  4  0
  7 26  4  0
  8 18  1  0
  8 19  4  0
  8 22  4  0
  9 12  4  0
  9 19  4  0
 10 12  4  0
 10 22  4  0
 11 20  4  0
 11 21  4  0
 12 23  1  0
 13 20  4  0
 13 29  4  0
 14 17  4  0
 14 28  4  0
 15 25  2  0
 16 27  4  0
 17 18  4  0
 20 27  1  0
 24 27  4  0
 26 28  4  0
M  END
$$$$

 Created by Python create_sdf_string function

 29 33  0  0  0  0  0  0  0  0999 V2000
    8.8270   -7.0288   18.4251 C   0  0  0  0  0  0  0  0  0  0  0  0
    9.1576   -4.6236   15.8860 O   0  0  0  0  0  0  0  0  0  0  0  0
    9.1509   -5.9108   17.7177 C   0  0  0  0  0  0  0  0  0  0  0  0
    3.6373   -9.5349   16.0582 N   0  0  0  0  0  0  0  0  0  0  0  0
    9.9275   -4.8001   18.0438 N   0  0  0  0  0  0  0  0  0  0  0  0
    8.5908   -5.7425   16.4412 C   0  0  0  0  0  0  0  0  0  0  0  0
   10.5993   -4.8981   21.6068 C   0  0  0  0  0  0  0  0  0  0  0  0
   10.4258   -3.0106   23.0998 C   0  0  0  0  0  0  0  0  0  0  0  0
   10.2148   -3.4364   25.4200 C   0  0  0  0  0  0  0  0  0  0  0  0
    9.7853   -1.1840   24.4927 C   0  0  0  0  0  0  0  0  0  0  0  0
    5.0276   -8.5227   17.5352 C   0  0  0  0  0  0  0  0  0  0  0  0
    9.8187   -2.0895   25.5800 C   0  0  0  0  0  0  0  0  0  0  0  0
    5.6473   -8.7216   15.3158 C   0  0  0  0  0  0  0  0  0  0  0  0
   10.7581   -3.1233   19.4720 N   0  0  0  0  0  0  0  0  0  0  0  0
    9.9571   -4.0573   16.8866 C   0  0  0  0  0  0  0  0  0  0  0  0
    7.6213   -6.5618   16.0087 C   0  0  0  0  0  0  0  0  0  0  0  0
   10.8583   -2.6527   20.7222 C   0  0  0  0  0  0  0  0  0  0  0  0
   10.6412   -3.5089   21.7936 C   0  0  0  0  0  0  0  0  0  0  0  0
   10.4972   -3.8968   24.1589 C   0  0  0  0  0  0  0  0  0  0  0  0
    5.9260   -8.2736   16.5517 C   0  0  0  0  0  0  0  0  0  0  0  0
    3.8816   -9.1166   17.2493 C   0  0  0  0  0  0  0  0  0  0  0  0
   10.1297   -1.6575   23.2324 C   0  0  0  0  0  0  0  0  0  0  0  0
    9.4684   -1.6929   26.7263 F   0  0  0  0  0  0  0  0  0  0  0  0
    7.7963   -7.7906   17.9837 C   0  0  0  0  0  0  0  0  0  0  0  0
   10.5884   -3.0725   16.7902 O   0  0  0  0  0  0  0  0  0  0  0  0
   10.4323   -5.3494   20.3516 C   0  0  0  0  0  0  0  0  0  0  0  0
    7.1156   -7.5454   16.8218 C   0  0  0  0  0  0  0  0  0  0  0  0
   10.3885   -4.4388   19.2773 C   0  0  0  0  0  0  0  0  0  0  0  0
    4.5160   -9.3822   15.0841 C   0  0  0  0  0  0  0  0  0  0  0  0
  1  3  4  0
  1 24  4  0
  2  6  4  0
  2 15  4  0
  3  5  4  0
  3  6  4  0
  4 21  4  0
  4 29  4  0
  5 15  4  0
  5 28  1  0
  6 16  4  0
  7 18  4  0
  7 26  4  0
  8 18  1  0
  8 19  4  0
  8 22  4  0
  9 12  4  0
  9 19  4  0
 10 12  4  0
 10 22  4  0
 11 20  4  0
 11 21  4  0
 12 23  1  0
 13 20  4  0
 13 29  4  0
 14 17  4  0
 14 28  4  0
 15 25  2  0
 16 27  4  0
 17 18  4  0
 20 27  1  0
 24 27  4  0
 26 28  4  0
M  END
$$$$

 Created by Python create_sdf_string function

 29 33  0  0  0  0  0  0  0  0999 V2000
    8.8270   -7.0288   18.4251 C   0  0  0  0  0  0  0  0  0  0  0  0
    9.1576   -4.6236   15.8860 O   0  0  0  0  0  0  0  0  0  0  0  0
    9.1509   -5.9108   17.7177 C   0  0  0  0  0  0  0  0  0  0  0  0
    3.6373   -9.5349   16.0582 N   0  0  0  0  0  0  0  0  0  0  0  0
    9.9275   -4.8001   18.0438 N   0  0  0  0  0  0  0  0  0  0  0  0
    8.5908   -5.7425   16.4412 C   0  0  0  0  0  0  0  0  0  0  0  0
   10.5993   -4.8981   21.6068 C   0  0  0  0  0  0  0  0  0  0  0  0
   10.4258   -3.0106   23.0998 C   0  0  0  0  0  0  0  0  0  0  0  0
   10.2148   -3.4364   25.4200 C   0  0  0  0  0  0  0  0  0  0  0  0
    9.7853   -1.1840   24.4927 C   0  0  0  0  0  0  0  0  0  0  0  0
    5.0276   -8.5227   17.5352 C   0  0  0  0  0  0  0  0  0  0  0  0
    9.8187   -2.0895   25.5800 C   0  0  0  0  0  0  0  0  0  0  0  0
    5.6473   -8.7216   15.3158 C   0  0  0  0  0  0  0  0  0  0  0  0
   10.7581   -3.1233   19.4720 N   0  0  0  0  0  0  0  0  0  0  0  0
    9.9571   -4.0573   16.8866 C   0  0  0  0  0  0  0  0  0  0  0  0
    7.6213   -6.5618   16.0087 C   0  0  0  0  0  0  0  0  0  0  0  0
   10.8583   -2.6527   20.7222 C   0  0  0  0  0  0  0  0  0  0  0  0
   10.6412   -3.5089   21.7936 C   0  0  0  0  0  0  0  0  0  0  0  0
   10.4972   -3.8968   24.1589 C   0  0  0  0  0  0  0  0  0  0  0  0
    5.9260   -8.2736   16.5517 C   0  0  0  0  0  0  0  0  0  0  0  0
    3.8816   -9.1166   17.2493 C   0  0  0  0  0  0  0  0  0  0  0  0
   10.1297   -1.6575   23.2324 C   0  0  0  0  0  0  0  0  0  0  0  0
    9.4684   -1.6929   26.7263 F   0  0  0  0  0  0  0  0  0  0  0  0
    7.7963   -7.7906   17.9837 C   0  0  0  0  0  0  0  0  0  0  0  0
   10.5884   -3.0725   16.7902 O   0  0  0  0  0  0  0  0  0  0  0  0
   10.4323   -5.3494   20.3516 C   0  0  0  0  0  0  0  0  0  0  0  0
    7.1156   -7.5454   16.8218 C   0  0  0  0  0  0  0  0  0  0  0  0
   10.3885   -4.4388   19.2773 C   0  0  0  0  0  0  0  0  0  0  0  0
    4.5160   -9.3822   15.0841 C   0  0  0  0  0  0  0  0  0  0  0  0
  1  3  4  0
  1 24  4  0
  2  6  4  0
  2 15  4  0
  3  5  4  0
  3  6  4  0
  4 21  4  0
  4 29  4  0
  5 15  4  0
  5 28  1  0
  6 16  4  0
  7 18  4  0
  7 26  4  0
  8 18  1  0
  8 19  4  0
  8 22  4  0
  9 12  4  0
  9 19  4  0
 10 12  4  0
 10 22  4  0
 11 20  4  0
 11 21  4  0
 12 23  1  0
 13 20  4  0
 13 29  4  0
 14 17  4  0
 14 28  4  0
 15 25  2  0
 16 27  4  0
 17 18  4  0
 20 27  1  0
 24 27  4  0
 26 28  4  0
M  END
$$$$

 Created by Python create_sdf_string function

 29 33  0  0  0  0  0  0  0  0999 V2000
    8.8270   -7.0288   18.4251 C   0  0  0  0  0  0  0  0  0  0  0  0
    9.1576   -4.6236   15.8860 O   0  0  0  0  0  0  0  0  0  0  0  0
    9.1509   -5.9108   17.7177 C   0  0  0  0  0  0  0  0  0  0  0  0
    3.6373   -9.5349   16.0582 N   0  0  0  0  0  0  0  0  0  0  0  0
    9.9275   -4.8001   18.0438 N   0  0  0  0  0  0  0  0  0  0  0  0
    8.5908   -5.7425   16.4412 C   0  0  0  0  0  0  0  0  0  0  0  0
   10.5993   -4.8981   21.6068 C   0  0  0  0  0  0  0  0  0  0  0  0
   10.4258   -3.0106   23.0998 C   0  0  0  0  0  0  0  0  0  0  0  0
   10.2148   -3.4364   25.4200 C   0  0  0  0  0  0  0  0  0  0  0  0
    9.7853   -1.1840   24.4927 C   0  0  0  0  0  0  0  0  0  0  0  0
    5.0276   -8.5227   17.5352 C   0  0  0  0  0  0  0  0  0  0  0  0
    9.8187   -2.0895   25.5800 C   0  0  0  0  0  0  0  0  0  0  0  0
    5.6473   -8.7216   15.3158 C   0  0  0  0  0  0  0  0  0  0  0  0
   10.7581   -3.1233   19.4720 N   0  0  0  0  0  0  0  0  0  0  0  0
    9.9571   -4.0573   16.8866 C   0  0  0  0  0  0  0  0  0  0  0  0
    7.6213   -6.5618   16.0087 C   0  0  0  0  0  0  0  0  0  0  0  0
   10.8583   -2.6527   20.7222 C   0  0  0  0  0  0  0  0  0  0  0  0
   10.6412   -3.5089   21.7936 C   0  0  0  0  0  0  0  0  0  0  0  0
   10.4972   -3.8968   24.1589 C   0  0  0  0  0  0  0  0  0  0  0  0
    5.9260   -8.2736   16.5517 C   0  0  0  0  0  0  0  0  0  0  0  0
    3.8816   -9.1166   17.2493 C   0  0  0  0  0  0  0  0  0  0  0  0
   10.1297   -1.6575   23.2324 C   0  0  0  0  0  0  0  0  0  0  0  0
    9.4684   -1.6929   26.7263 F   0  0  0  0  0  0  0  0  0  0  0  0
    7.7963   -7.7906   17.9837 C   0  0  0  0  0  0  0  0  0  0  0  0
   10.5884   -3.0725   16.7902 O   0  0  0  0  0  0  0  0  0  0  0  0
   10.4323   -5.3494   20.3516 C   0  0  0  0  0  0  0  0  0  0  0  0
    7.1156   -7.5454   16.8218 C   0  0  0  0  0  0  0  0  0  0  0  0
   10.3885   -4.4388   19.2773 C   0  0  0  0  0  0  0  0  0  0  0  0
    4.5160   -9.3822   15.0841 C   0  0  0  0  0  0  0  0  0  0  0  0
  1  3  4  0
  1 24  4  0
  2  6  4  0
  2 15  4  0
  3  5  4  0
  3  6  4  0
  4 21  4  0
  4 29  4  0
  5 15  4  0
  5 28  1  0
  6 16  4  0
  7 18  4  0
  7 26  4  0
  8 18  1  0
  8 19  4  0
  8 22  4  0
  9 12  4  0
  9 19  4  0
 10 12  4  0
 10 22  4  0
 11 20  4  0
 11 21  4  0
 12 23  1  0
 13 20  4  0
 13 29  4  0
 14 17  4  0
 14 28  4  0
 15 25  2  0
 16 27  4  0
 17 18  4  0
 20 27  1  0
 24 27  4  0
 26 28  4  0
M  END
$$$$

 Created by Python create_sdf_string function

 29 33  0  0  0  0  0  0  0  0999 V2000
    8.8270   -7.0288   18.4251 C   0  0  0  0  0  0  0  0  0  0  0  0
    9.1576   -4.6236   15.8860 O   0  0  0  0  0  0  0  0  0  0  0  0
    9.1509   -5.9108   17.7177 C   0  0  0  0  0  0  0  0  0  0  0  0
    3.6373   -9.5349   16.0582 N   0  0  0  0  0  0  0  0  0  0  0  0
    9.9275   -4.8001   18.0438 N   0  0  0  0  0  0  0  0  0  0  0  0
    8.5908   -5.7425   16.4412 C   0  0  0  0  0  0  0  0  0  0  0  0
   10.5993   -4.8981   21.6068 C   0  0  0  0  0  0  0  0  0  0  0  0
   10.4258   -3.0106   23.0998 C   0  0  0  0  0  0  0  0  0  0  0  0
   10.2148   -3.4364   25.4200 C   0  0  0  0  0  0  0  0  0  0  0  0
    9.7853   -1.1840   24.4927 C   0  0  0  0  0  0  0  0  0  0  0  0
    5.0276   -8.5227   17.5352 C   0  0  0  0  0  0  0  0  0  0  0  0
    9.8187   -2.0895   25.5800 C   0  0  0  0  0  0  0  0  0  0  0  0
    5.6473   -8.7216   15.3158 C   0  0  0  0  0  0  0  0  0  0  0  0
   10.7581   -3.1233   19.4720 N   0  0  0  0  0  0  0  0  0  0  0  0
    9.9571   -4.0573   16.8866 C   0  0  0  0  0  0  0  0  0  0  0  0
    7.6213   -6.5618   16.0087 C   0  0  0  0  0  0  0  0  0  0  0  0
   10.8583   -2.6527   20.7222 C   0  0  0  0  0  0  0  0  0  0  0  0
   10.6412   -3.5089   21.7936 C   0  0  0  0  0  0  0  0  0  0  0  0
   10.4972   -3.8968   24.1589 C   0  0  0  0  0  0  0  0  0  0  0  0
    5.9260   -8.2736   16.5517 C   0  0  0  0  0  0  0  0  0  0  0  0
    3.8816   -9.1166   17.2493 C   0  0  0  0  0  0  0  0  0  0  0  0
   10.1297   -1.6575   23.2324 C   0  0  0  0  0  0  0  0  0  0  0  0
    9.4684   -1.6929   26.7263 F   0  0  0  0  0  0  0  0  0  0  0  0
    7.7963   -7.7906   17.9837 C   0  0  0  0  0  0  0  0  0  0  0  0
   10.5884   -3.0725   16.7902 O   0  0  0  0  0  0  0  0  0  0  0  0
   10.4323   -5.3494   20.3516 C   0  0  0  0  0  0  0  0  0  0  0  0
    7.1156   -7.5454   16.8218 C   0  0  0  0  0  0  0  0  0  0  0  0
   10.3885   -4.4388   19.2773 C   0  0  0  0  0  0  0  0  0  0  0  0
    4.5160   -9.3822   15.0841 C   0  0  0  0  0  0  0  0  0  0  0  0
  1  3  4  0
  1 24  4  0
  2  6  4  0
  2 15  4  0
  3  5  4  0
  3  6  4  0
  4 21  4  0
  4 29  4  0
  5 15  4  0
  5 28  1  0
  6 16  4  0
  7 18  4  0
  7 26  4  0
  8 18  1  0
  8 19  4  0
  8 22  4  0
  9 12  4  0
  9 19  4  0
 10 12  4  0
 10 22  4  0
 11 20  4  0
 11 21  4  0
 12 23  1  0
 13 20  4  0
 13 29  4  0
 14 17  4  0
 14 28  4  0
 15 25  2  0
 16 27  4  0
 17 18  4  0
 20 27  1  0
 24 27  4  0
 26 28  4  0
M  END
$$$$

 Created by Python create_sdf_string function

 29 33  0  0  0  0  0  0  0  0999 V2000
    8.8270   -7.0288   18.4251 C   0  0  0  0  0  0  0  0  0  0  0  0
    9.1576   -4.6236   15.8860 O   0  0  0  0  0  0  0  0  0  0  0  0
    9.1509   -5.9108   17.7177 C   0  0  0  0  0  0  0  0  0  0  0  0
    3.6373   -9.5349   16.0582 N   0  0  0  0  0  0  0  0  0  0  0  0
    9.9275   -4.8001   18.0438 N   0  0  0  0  0  0  0  0  0  0  0  0
    8.5908   -5.7425   16.4412 C   0  0  0  0  0  0  0  0  0  0  0  0
   10.5993   -4.8981   21.6068 C   0  0  0  0  0  0  0  0  0  0  0  0
   10.4258   -3.0106   23.0998 C   0  0  0  0  0  0  0  0  0  0  0  0
   10.2148   -3.4364   25.4200 C   0  0  0  0  0  0  0  0  0  0  0  0
    9.7853   -1.1840   24.4927 C   0  0  0  0  0  0  0  0  0  0  0  0
    5.0276   -8.5227   17.5352 C   0  0  0  0  0  0  0  0  0  0  0  0
    9.8187   -2.0895   25.5800 C   0  0  0  0  0  0  0  0  0  0  0  0
    5.6473   -8.7216   15.3158 C   0  0  0  0  0  0  0  0  0  0  0  0
   10.7581   -3.1233   19.4720 N   0  0  0  0  0  0  0  0  0  0  0  0
    9.9571   -4.0573   16.8866 C   0  0  0  0  0  0  0  0  0  0  0  0
    7.6213   -6.5618   16.0087 C   0  0  0  0  0  0  0  0  0  0  0  0
   10.8583   -2.6527   20.7222 C   0  0  0  0  0  0  0  0  0  0  0  0
   10.6412   -3.5089   21.7936 C   0  0  0  0  0  0  0  0  0  0  0  0
   10.4972   -3.8968   24.1589 C   0  0  0  0  0  0  0  0  0  0  0  0
    5.9260   -8.2736   16.5517 C   0  0  0  0  0  0  0  0  0  0  0  0
    3.8816   -9.1166   17.2493 C   0  0  0  0  0  0  0  0  0  0  0  0
   10.1297   -1.6575   23.2324 C   0  0  0  0  0  0  0  0  0  0  0  0
    9.4684   -1.6929   26.7263 F   0  0  0  0  0  0  0  0  0  0  0  0
    7.7963   -7.7906   17.9837 C   0  0  0  0  0  0  0  0  0  0  0  0
   10.5884   -3.0725   16.7902 O   0  0  0  0  0  0  0  0  0  0  0  0
   10.4323   -5.3494   20.3516 C   0  0  0  0  0  0  0  0  0  0  0  0
    7.1156   -7.5454   16.8218 C   0  0  0  0  0  0  0  0  0  0  0  0
   10.3885   -4.4388   19.2773 C   0  0  0  0  0  0  0  0  0  0  0  0
    4.5160   -9.3822   15.0841 C   0  0  0  0  0  0  0  0  0  0  0  0
  1  3  4  0
  1 24  4  0
  2  6  4  0
  2 15  4  0
  3  5  4  0
  3  6  4  0
  4 21  4  0
  4 29  4  0
  5 15  4  0
  5 28  1  0
  6 16  4  0
  7 18  4  0
  7 26  4  0
  8 18  1  0
  8 19  4  0
  8 22  4  0
  9 12  4  0
  9 19  4  0
 10 12  4  0
 10 22  4  0
 11 20  4  0
 11 21  4  0
 12 23  1  0
 13 20  4  0
 13 29  4  0
 14 17  4  0
 14 28  4  0
 15 25  2  0
 16 27  4  0
 17 18  4  0
 20 27  1  0
 24 27  4  0
 26 28  4  0
M  END
$$$$

 Created by Python create_sdf_string function

 29 33  0  0  0  0  0  0  0  0999 V2000
    8.8270   -7.0288   18.4251 C   0  0  0  0  0  0  0  0  0  0  0  0
    9.1576   -4.6236   15.8860 O   0  0  0  0  0  0  0  0  0  0  0  0
    9.1509   -5.9108   17.7177 C   0  0  0  0  0  0  0  0  0  0  0  0
    3.6373   -9.5349   16.0582 N   0  0  0  0  0  0  0  0  0  0  0  0
    9.9275   -4.8001   18.0438 N   0  0  0  0  0  0  0  0  0  0  0  0
    8.5908   -5.7425   16.4412 C   0  0  0  0  0  0  0  0  0  0  0  0
   10.5993   -4.8981   21.6068 C   0  0  0  0  0  0  0  0  0  0  0  0
   10.4258   -3.0106   23.0998 C   0  0  0  0  0  0  0  0  0  0  0  0
   10.2148   -3.4364   25.4200 C   0  0  0  0  0  0  0  0  0  0  0  0
    9.7853   -1.1840   24.4927 C   0  0  0  0  0  0  0  0  0  0  0  0
    5.0276   -8.5227   17.5352 C   0  0  0  0  0  0  0  0  0  0  0  0
    9.8187   -2.0895   25.5800 C   0  0  0  0  0  0  0  0  0  0  0  0
    5.6473   -8.7216   15.3158 C   0  0  0  0  0  0  0  0  0  0  0  0
   10.7581   -3.1233   19.4720 N   0  0  0  0  0  0  0  0  0  0  0  0
    9.9571   -4.0573   16.8866 C   0  0  0  0  0  0  0  0  0  0  0  0
    7.6213   -6.5618   16.0087 C   0  0  0  0  0  0  0  0  0  0  0  0
   10.8583   -2.6527   20.7222 C   0  0  0  0  0  0  0  0  0  0  0  0
   10.6412   -3.5089   21.7936 C   0  0  0  0  0  0  0  0  0  0  0  0
   10.4972   -3.8968   24.1589 C   0  0  0  0  0  0  0  0  0  0  0  0
    5.9260   -8.2736   16.5517 C   0  0  0  0  0  0  0  0  0  0  0  0
    3.8816   -9.1166   17.2493 C   0  0  0  0  0  0  0  0  0  0  0  0
   10.1297   -1.6575   23.2324 C   0  0  0  0  0  0  0  0  0  0  0  0
    9.4684   -1.6929   26.7263 F   0  0  0  0  0  0  0  0  0  0  0  0
    7.7963   -7.7906   17.9837 C   0  0  0  0  0  0  0  0  0  0  0  0
   10.5884   -3.0725   16.7902 O   0  0  0  0  0  0  0  0  0  0  0  0
   10.4323   -5.3494   20.3516 C   0  0  0  0  0  0  0  0  0  0  0  0
    7.1156   -7.5454   16.8218 C   0  0  0  0  0  0  0  0  0  0  0  0
   10.3885   -4.4388   19.2773 C   0  0  0  0  0  0  0  0  0  0  0  0
    4.5160   -9.3822   15.0841 C   0  0  0  0  0  0  0  0  0  0  0  0
  1  3  4  0
  1 24  4  0
  2  6  4  0
  2 15  4  0
  3  5  4  0
  3  6  4  0
  4 21  4  0
  4 29  4  0
  5 15  4  0
  5 28  1  0
  6 16  4  0
  7 18  4  0
  7 26  4  0
  8 18  1  0
  8 19  4  0
  8 22  4  0
  9 12  4  0
  9 19  4  0
 10 12  4  0
 10 22  4  0
 11 20  4  0
 11 21  4  0
 12 23  1  0
 13 20  4  0
 13 29  4  0
 14 17  4  0
 14 28  4  0
 15 25  2  0
 16 27  4  0
 17 18  4  0
 20 27  1  0
 24 27  4  0
 26 28  4  0
M  END
$$$$

 Created by Python create_sdf_string function

 29 33  0  0  0  0  0  0  0  0999 V2000
    8.8270   -7.0288   18.4251 C   0  0  0  0  0  0  0  0  0  0  0  0
    9.1576   -4.6236   15.8860 O   0  0  0  0  0  0  0  0  0  0  0  0
    9.1509   -5.9108   17.7177 C   0  0  0  0  0  0  0  0  0  0  0  0
    3.6373   -9.5349   16.0582 N   0  0  0  0  0  0  0  0  0  0  0  0
    9.9275   -4.8001   18.0438 N   0  0  0  0  0  0  0  0  0  0  0  0
    8.5908   -5.7425   16.4412 C   0  0  0  0  0  0  0  0  0  0  0  0
   10.5993   -4.8981   21.6068 C   0  0  0  0  0  0  0  0  0  0  0  0
   10.4258   -3.0106   23.0998 C   0  0  0  0  0  0  0  0  0  0  0  0
   10.2148   -3.4364   25.4200 C   0  0  0  0  0  0  0  0  0  0  0  0
    9.7853   -1.1840   24.4927 C   0  0  0  0  0  0  0  0  0  0  0  0
    5.0276   -8.5227   17.5352 C   0  0  0  0  0  0  0  0  0  0  0  0
    9.8187   -2.0895   25.5800 C   0  0  0  0  0  0  0  0  0  0  0  0
    5.6473   -8.7216   15.3158 C   0  0  0  0  0  0  0  0  0  0  0  0
   10.7581   -3.1233   19.4720 N   0  0  0  0  0  0  0  0  0  0  0  0
    9.9571   -4.0573   16.8866 C   0  0  0  0  0  0  0  0  0  0  0  0
    7.6213   -6.5618   16.0087 C   0  0  0  0  0  0  0  0  0  0  0  0
   10.8583   -2.6527   20.7222 C   0  0  0  0  0  0  0  0  0  0  0  0
   10.6412   -3.5089   21.7936 C   0  0  0  0  0  0  0  0  0  0  0  0
   10.4972   -3.8968   24.1589 C   0  0  0  0  0  0  0  0  0  0  0  0
    5.9260   -8.2736   16.5517 C   0  0  0  0  0  0  0  0  0  0  0  0
    3.8816   -9.1166   17.2493 C   0  0  0  0  0  0  0  0  0  0  0  0
   10.1297   -1.6575   23.2324 C   0  0  0  0  0  0  0  0  0  0  0  0
    9.4684   -1.6929   26.7263 F   0  0  0  0  0  0  0  0  0  0  0  0
    7.7963   -7.7906   17.9837 C   0  0  0  0  0  0  0  0  0  0  0  0
   10.5884   -3.0725   16.7902 O   0  0  0  0  0  0  0  0  0  0  0  0
   10.4323   -5.3494   20.3516 C   0  0  0  0  0  0  0  0  0  0  0  0
    7.1156   -7.5454   16.8218 C   0  0  0  0  0  0  0  0  0  0  0  0
   10.3885   -4.4388   19.2773 C   0  0  0  0  0  0  0  0  0  0  0  0
    4.5160   -9.3822   15.0841 C   0  0  0  0  0  0  0  0  0  0  0  0
  1  3  4  0
  1 24  4  0
  2  6  4  0
  2 15  4  0
  3  5  4  0
  3  6  4  0
  4 21  4  0
  4 29  4  0
  5 15  4  0
  5 28  1  0
  6 16  4  0
  7 18  4  0
  7 26  4  0
  8 18  1  0
  8 19  4  0
  8 22  4  0
  9 12  4  0
  9 19  4  0
 10 12  4  0
 10 22  4  0
 11 20  4  0
 11 21  4  0
 12 23  1  0
 13 20  4  0
 13 29  4  0
 14 17  4  0
 14 28  4  0
 15 25  2  0
 16 27  4  0
 17 18  4  0
 20 27  1  0
 24 27  4  0
 26 28  4  0
M  END
$$$$

 Created by Python create_sdf_string function

 29 33  0  0  0  0  0  0  0  0999 V2000
    8.8270   -7.0288   18.4251 C   0  0  0  0  0  0  0  0  0  0  0  0
    9.1576   -4.6236   15.8860 O   0  0  0  0  0  0  0  0  0  0  0  0
    9.1509   -5.9108   17.7177 C   0  0  0  0  0  0  0  0  0  0  0  0
    3.6373   -9.5349   16.0582 N   0  0  0  0  0  0  0  0  0  0  0  0
    9.9275   -4.8001   18.0438 N   0  0  0  0  0  0  0  0  0  0  0  0
    8.5908   -5.7425   16.4412 C   0  0  0  0  0  0  0  0  0  0  0  0
   10.5993   -4.8981   21.6068 C   0  0  0  0  0  0  0  0  0  0  0  0
   10.4258   -3.0106   23.0998 C   0  0  0  0  0  0  0  0  0  0  0  0
   10.2148   -3.4364   25.4200 C   0  0  0  0  0  0  0  0  0  0  0  0
    9.7853   -1.1840   24.4927 C   0  0  0  0  0  0  0  0  0  0  0  0
    5.0276   -8.5227   17.5352 C   0  0  0  0  0  0  0  0  0  0  0  0
    9.8187   -2.0895   25.5800 C   0  0  0  0  0  0  0  0  0  0  0  0
    5.6473   -8.7216   15.3158 C   0  0  0  0  0  0  0  0  0  0  0  0
   10.7581   -3.1233   19.4720 N   0  0  0  0  0  0  0  0  0  0  0  0
    9.9571   -4.0573   16.8866 C   0  0  0  0  0  0  0  0  0  0  0  0
    7.6213   -6.5618   16.0087 C   0  0  0  0  0  0  0  0  0  0  0  0
   10.8583   -2.6527   20.7222 C   0  0  0  0  0  0  0  0  0  0  0  0
   10.6412   -3.5089   21.7936 C   0  0  0  0  0  0  0  0  0  0  0  0
   10.4972   -3.8968   24.1589 C   0  0  0  0  0  0  0  0  0  0  0  0
    5.9260   -8.2736   16.5517 C   0  0  0  0  0  0  0  0  0  0  0  0
    3.8816   -9.1166   17.2493 C   0  0  0  0  0  0  0  0  0  0  0  0
   10.1297   -1.6575   23.2324 C   0  0  0  0  0  0  0  0  0  0  0  0
    9.4684   -1.6929   26.7263 F   0  0  0  0  0  0  0  0  0  0  0  0
    7.7963   -7.7906   17.9837 C   0  0  0  0  0  0  0  0  0  0  0  0
   10.5884   -3.0725   16.7902 O   0  0  0  0  0  0  0  0  0  0  0  0
   10.4323   -5.3494   20.3516 C   0  0  0  0  0  0  0  0  0  0  0  0
    7.1156   -7.5454   16.8218 C   0  0  0  0  0  0  0  0  0  0  0  0
   10.3885   -4.4388   19.2773 C   0  0  0  0  0  0  0  0  0  0  0  0
    4.5160   -9.3822   15.0841 C   0  0  0  0  0  0  0  0  0  0  0  0
  1  3  4  0
  1 24  4  0
  2  6  4  0
  2 15  4  0
  3  5  4  0
  3  6  4  0
  4 21  4  0
  4 29  4  0
  5 15  4  0
  5 28  1  0
  6 16  4  0
  7 18  4  0
  7 26  4  0
  8 18  1  0
  8 19  4  0
  8 22  4  0
  9 12  4  0
  9 19  4  0
 10 12  4  0
 10 22  4  0
 11 20  4  0
 11 21  4  0
 12 23  1  0
 13 20  4  0
 13 29  4  0
 14 17  4  0
 14 28  4  0
 15 25  2  0
 16 27  4  0
 17 18  4  0
 20 27  1  0
 24 27  4  0
 26 28  4  0
M  END
$$$$

 Created by Python create_sdf_string function

 29 33  0  0  0  0  0  0  0  0999 V2000
    8.8270   -7.0288   18.4251 C   0  0  0  0  0  0  0  0  0  0  0  0
    9.1576   -4.6236   15.8860 O   0  0  0  0  0  0  0  0  0  0  0  0
    9.1509   -5.9108   17.7177 C   0  0  0  0  0  0  0  0  0  0  0  0
    3.6373   -9.5349   16.0582 N   0  0  0  0  0  0  0  0  0  0  0  0
    9.9275   -4.8001   18.0438 N   0  0  0  0  0  0  0  0  0  0  0  0
    8.5908   -5.7425   16.4412 C   0  0  0  0  0  0  0  0  0  0  0  0
   10.5993   -4.8981   21.6068 C   0  0  0  0  0  0  0  0  0  0  0  0
   10.4258   -3.0106   23.0998 C   0  0  0  0  0  0  0  0  0  0  0  0
   10.2148   -3.4364   25.4200 C   0  0  0  0  0  0  0  0  0  0  0  0
    9.7853   -1.1840   24.4927 C   0  0  0  0  0  0  0  0  0  0  0  0
    5.0276   -8.5227   17.5352 C   0  0  0  0  0  0  0  0  0  0  0  0
    9.8187   -2.0895   25.5800 C   0  0  0  0  0  0  0  0  0  0  0  0
    5.6473   -8.7216   15.3158 C   0  0  0  0  0  0  0  0  0  0  0  0
   10.7581   -3.1233   19.4720 N   0  0  0  0  0  0  0  0  0  0  0  0
    9.9571   -4.0573   16.8866 C   0  0  0  0  0  0  0  0  0  0  0  0
    7.6213   -6.5618   16.0087 C   0  0  0  0  0  0  0  0  0  0  0  0
   10.8583   -2.6527   20.7222 C   0  0  0  0  0  0  0  0  0  0  0  0
   10.6412   -3.5089   21.7936 C   0  0  0  0  0  0  0  0  0  0  0  0
   10.4972   -3.8968   24.1589 C   0  0  0  0  0  0  0  0  0  0  0  0
    5.9260   -8.2736   16.5517 C   0  0  0  0  0  0  0  0  0  0  0  0
    3.8816   -9.1166   17.2493 C   0  0  0  0  0  0  0  0  0  0  0  0
   10.1297   -1.6575   23.2324 C   0  0  0  0  0  0  0  0  0  0  0  0
    9.4684   -1.6929   26.7263 F   0  0  0  0  0  0  0  0  0  0  0  0
    7.7963   -7.7906   17.9837 C   0  0  0  0  0  0  0  0  0  0  0  0
   10.5884   -3.0725   16.7902 O   0  0  0  0  0  0  0  0  0  0  0  0
   10.4323   -5.3494   20.3516 C   0  0  0  0  0  0  0  0  0  0  0  0
    7.1156   -7.5454   16.8218 C   0  0  0  0  0  0  0  0  0  0  0  0
   10.3885   -4.4388   19.2773 C   0  0  0  0  0  0  0  0  0  0  0  0
    4.5160   -9.3822   15.0841 C   0  0  0  0  0  0  0  0  0  0  0  0
  1  3  4  0
  1 24  4  0
  2  6  4  0
  2 15  4  0
  3  5  4  0
  3  6  4  0
  4 21  4  0
  4 29  4  0
  5 15  4  0
  5 28  1  0
  6 16  4  0
  7 18  4  0
  7 26  4  0
  8 18  1  0
  8 19  4  0
  8 22  4  0
  9 12  4  0
  9 19  4  0
 10 12  4  0
 10 22  4  0
 11 20  4  0
 11 21  4  0
 12 23  1  0
 13 20  4  0
 13 29  4  0
 14 17  4  0
 14 28  4  0
 15 25  2  0
 16 27  4  0
 17 18  4  0
 20 27  1  0
 24 27  4  0
 26 28  4  0
M  END
$$$$

 Created by Python create_sdf_string function

 29 33  0  0  0  0  0  0  0  0999 V2000
    8.8270   -7.0288   18.4251 C   0  0  0  0  0  0  0  0  0  0  0  0
    9.1576   -4.6236   15.8860 O   0  0  0  0  0  0  0  0  0  0  0  0
    9.1509   -5.9108   17.7177 C   0  0  0  0  0  0  0  0  0  0  0  0
    3.6373   -9.5349   16.0582 N   0  0  0  0  0  0  0  0  0  0  0  0
    9.9275   -4.8001   18.0438 N   0  0  0  0  0  0  0  0  0  0  0  0
    8.5908   -5.7425   16.4412 C   0  0  0  0  0  0  0  0  0  0  0  0
   10.5993   -4.8981   21.6068 C   0  0  0  0  0  0  0  0  0  0  0  0
   10.4258   -3.0106   23.0998 C   0  0  0  0  0  0  0  0  0  0  0  0
   10.2148   -3.4364   25.4200 C   0  0  0  0  0  0  0  0  0  0  0  0
    9.7853   -1.1840   24.4927 C   0  0  0  0  0  0  0  0  0  0  0  0
    5.0276   -8.5227   17.5352 C   0  0  0  0  0  0  0  0  0  0  0  0
    9.8187   -2.0895   25.5800 C   0  0  0  0  0  0  0  0  0  0  0  0
    5.6473   -8.7216   15.3158 C   0  0  0  0  0  0  0  0  0  0  0  0
   10.7581   -3.1233   19.4720 N   0  0  0  0  0  0  0  0  0  0  0  0
    9.9571   -4.0573   16.8866 C   0  0  0  0  0  0  0  0  0  0  0  0
    7.6213   -6.5618   16.0087 C   0  0  0  0  0  0  0  0  0  0  0  0
   10.8583   -2.6527   20.7222 C   0  0  0  0  0  0  0  0  0  0  0  0
   10.6412   -3.5089   21.7936 C   0  0  0  0  0  0  0  0  0  0  0  0
   10.4972   -3.8968   24.1589 C   0  0  0  0  0  0  0  0  0  0  0  0
    5.9260   -8.2736   16.5517 C   0  0  0  0  0  0  0  0  0  0  0  0
    3.8816   -9.1166   17.2493 C   0  0  0  0  0  0  0  0  0  0  0  0
   10.1297   -1.6575   23.2324 C   0  0  0  0  0  0  0  0  0  0  0  0
    9.4684   -1.6929   26.7263 F   0  0  0  0  0  0  0  0  0  0  0  0
    7.7963   -7.7906   17.9837 C   0  0  0  0  0  0  0  0  0  0  0  0
   10.5884   -3.0725   16.7902 O   0  0  0  0  0  0  0  0  0  0  0  0
   10.4323   -5.3494   20.3516 C   0  0  0  0  0  0  0  0  0  0  0  0
    7.1156   -7.5454   16.8218 C   0  0  0  0  0  0  0  0  0  0  0  0
   10.3885   -4.4388   19.2773 C   0  0  0  0  0  0  0  0  0  0  0  0
    4.5160   -9.3822   15.0841 C   0  0  0  0  0  0  0  0  0  0  0  0
  1  3  4  0
  1 24  4  0
  2  6  4  0
  2 15  4  0
  3  5  4  0
  3  6  4  0
  4 21  4  0
  4 29  4  0
  5 15  4  0
  5 28  1  0
  6 16  4  0
  7 18  4  0
  7 26  4  0
  8 18  1  0
  8 19  4  0
  8 22  4  0
  9 12  4  0
  9 19  4  0
 10 12  4  0
 10 22  4  0
 11 20  4  0
 11 21  4  0
 12 23  1  0
 13 20  4  0
 13 29  4  0
 14 17  4  0
 14 28  4  0
 15 25  2  0
 16 27  4  0
 17 18  4  0
 20 27  1  0
 24 27  4  0
 26 28  4  0
M  END
$$$$

 Created by Python create_sdf_string function

 29 33  0  0  0  0  0  0  0  0999 V2000
    8.8270   -7.0288   18.4251 C   0  0  0  0  0  0  0  0  0  0  0  0
    9.1576   -4.6236   15.8860 O   0  0  0  0  0  0  0  0  0  0  0  0
    9.1509   -5.9108   17.7177 C   0  0  0  0  0  0  0  0  0  0  0  0
    3.6373   -9.5349   16.0582 N   0  0  0  0  0  0  0  0  0  0  0  0
    9.9275   -4.8001   18.0438 N   0  0  0  0  0  0  0  0  0  0  0  0
    8.5908   -5.7425   16.4412 C   0  0  0  0  0  0  0  0  0  0  0  0
   10.5993   -4.8981   21.6068 C   0  0  0  0  0  0  0  0  0  0  0  0
   10.4258   -3.0106   23.0998 C   0  0  0  0  0  0  0  0  0  0  0  0
   10.2148   -3.4364   25.4200 C   0  0  0  0  0  0  0  0  0  0  0  0
    9.7853   -1.1840   24.4927 C   0  0  0  0  0  0  0  0  0  0  0  0
    5.0276   -8.5227   17.5352 C   0  0  0  0  0  0  0  0  0  0  0  0
    9.8187   -2.0895   25.5800 C   0  0  0  0  0  0  0  0  0  0  0  0
    5.6473   -8.7216   15.3158 C   0  0  0  0  0  0  0  0  0  0  0  0
   10.7581   -3.1233   19.4720 N   0  0  0  0  0  0  0  0  0  0  0  0
    9.9571   -4.0573   16.8866 C   0  0  0  0  0  0  0  0  0  0  0  0
    7.6213   -6.5618   16.0087 C   0  0  0  0  0  0  0  0  0  0  0  0
   10.8583   -2.6527   20.7222 C   0  0  0  0  0  0  0  0  0  0  0  0
   10.6412   -3.5089   21.7936 C   0  0  0  0  0  0  0  0  0  0  0  0
   10.4972   -3.8968   24.1589 C   0  0  0  0  0  0  0  0  0  0  0  0
    5.9260   -8.2736   16.5517 C   0  0  0  0  0  0  0  0  0  0  0  0
    3.8816   -9.1166   17.2493 C   0  0  0  0  0  0  0  0  0  0  0  0
   10.1297   -1.6575   23.2324 C   0  0  0  0  0  0  0  0  0  0  0  0
    9.4684   -1.6929   26.7263 F   0  0  0  0  0  0  0  0  0  0  0  0
    7.7963   -7.7906   17.9837 C   0  0  0  0  0  0  0  0  0  0  0  0
   10.5884   -3.0725   16.7902 O   0  0  0  0  0  0  0  0  0  0  0  0
   10.4323   -5.3494   20.3516 C   0  0  0  0  0  0  0  0  0  0  0  0
    7.1156   -7.5454   16.8218 C   0  0  0  0  0  0  0  0  0  0  0  0
   10.3885   -4.4388   19.2773 C   0  0  0  0  0  0  0  0  0  0  0  0
    4.5160   -9.3822   15.0841 C   0  0  0  0  0  0  0  0  0  0  0  0
  1  3  4  0
  1 24  4  0
  2  6  4  0
  2 15  4  0
  3  5  4  0
  3  6  4  0
  4 21  4  0
  4 29  4  0
  5 15  4  0
  5 28  1  0
  6 16  4  0
  7 18  4  0
  7 26  4  0
  8 18  1  0
  8 19  4  0
  8 22  4  0
  9 12  4  0
  9 19  4  0
 10 12  4  0
 10 22  4  0
 11 20  4  0
 11 21  4  0
 12 23  1  0
 13 20  4  0
 13 29  4  0
 14 17  4  0
 14 28  4  0
 15 25  2  0
 16 27  4  0
 17 18  4  0
 20 27  1  0
 24 27  4  0
 26 28  4  0
M  END
$$$$

 Created by Python create_sdf_string function

 29 33  0  0  0  0  0  0  0  0999 V2000
    8.8270   -7.0288   18.4251 C   0  0  0  0  0  0  0  0  0  0  0  0
    9.1576   -4.6236   15.8860 O   0  0  0  0  0  0  0  0  0  0  0  0
    9.1509   -5.9108   17.7177 C   0  0  0  0  0  0  0  0  0  0  0  0
    3.6373   -9.5349   16.0582 N   0  0  0  0  0  0  0  0  0  0  0  0
    9.9275   -4.8001   18.0438 N   0  0  0  0  0  0  0  0  0  0  0  0
    8.5908   -5.7425   16.4412 C   0  0  0  0  0  0  0  0  0  0  0  0
   10.5993   -4.8981   21.6068 C   0  0  0  0  0  0  0  0  0  0  0  0
   10.4258   -3.0106   23.0998 C   0  0  0  0  0  0  0  0  0  0  0  0
   10.2148   -3.4364   25.4200 C   0  0  0  0  0  0  0  0  0  0  0  0
    9.7853   -1.1840   24.4927 C   0  0  0  0  0  0  0  0  0  0  0  0
    5.0276   -8.5227   17.5352 C   0  0  0  0  0  0  0  0  0  0  0  0
    9.8187   -2.0895   25.5800 C   0  0  0  0  0  0  0  0  0  0  0  0
    5.6473   -8.7216   15.3158 C   0  0  0  0  0  0  0  0  0  0  0  0
   10.7581   -3.1233   19.4720 N   0  0  0  0  0  0  0  0  0  0  0  0
    9.9571   -4.0573   16.8866 C   0  0  0  0  0  0  0  0  0  0  0  0
    7.6213   -6.5618   16.0087 C   0  0  0  0  0  0  0  0  0  0  0  0
   10.8583   -2.6527   20.7222 C   0  0  0  0  0  0  0  0  0  0  0  0
   10.6412   -3.5089   21.7936 C   0  0  0  0  0  0  0  0  0  0  0  0
   10.4972   -3.8968   24.1589 C   0  0  0  0  0  0  0  0  0  0  0  0
    5.9260   -8.2736   16.5517 C   0  0  0  0  0  0  0  0  0  0  0  0
    3.8816   -9.1166   17.2493 C   0  0  0  0  0  0  0  0  0  0  0  0
   10.1297   -1.6575   23.2324 C   0  0  0  0  0  0  0  0  0  0  0  0
    9.4684   -1.6929   26.7263 F   0  0  0  0  0  0  0  0  0  0  0  0
    7.7963   -7.7906   17.9837 C   0  0  0  0  0  0  0  0  0  0  0  0
   10.5884   -3.0725   16.7902 O   0  0  0  0  0  0  0  0  0  0  0  0
   10.4323   -5.3494   20.3516 C   0  0  0  0  0  0  0  0  0  0  0  0
    7.1156   -7.5454   16.8218 C   0  0  0  0  0  0  0  0  0  0  0  0
   10.3885   -4.4388   19.2773 C   0  0  0  0  0  0  0  0  0  0  0  0
    4.5160   -9.3822   15.0841 C   0  0  0  0  0  0  0  0  0  0  0  0
  1  3  4  0
  1 24  4  0
  2  6  4  0
  2 15  4  0
  3  5  4  0
  3  6  4  0
  4 21  4  0
  4 29  4  0
  5 15  4  0
  5 28  1  0
  6 16  4  0
  7 18  4  0
  7 26  4  0
  8 18  1  0
  8 19  4  0
  8 22  4  0
  9 12  4  0
  9 19  4  0
 10 12  4  0
 10 22  4  0
 11 20  4  0
 11 21  4  0
 12 23  1  0
 13 20  4  0
 13 29  4  0
 14 17  4  0
 14 28  4  0
 15 25  2  0
 16 27  4  0
 17 18  4  0
 20 27  1  0
 24 27  4  0
 26 28  4  0
M  END
$$$$

 Created by Python create_sdf_string function

 29 33  0  0  0  0  0  0  0  0999 V2000
    8.8270   -7.0288   18.4251 C   0  0  0  0  0  0  0  0  0  0  0  0
    9.1576   -4.6236   15.8860 O   0  0  0  0  0  0  0  0  0  0  0  0
    9.1509   -5.9108   17.7177 C   0  0  0  0  0  0  0  0  0  0  0  0
    3.6373   -9.5349   16.0582 N   0  0  0  0  0  0  0  0  0  0  0  0
    9.9275   -4.8001   18.0438 N   0  0  0  0  0  0  0  0  0  0  0  0
    8.5908   -5.7425   16.4412 C   0  0  0  0  0  0  0  0  0  0  0  0
   10.5993   -4.8981   21.6068 C   0  0  0  0  0  0  0  0  0  0  0  0
   10.4258   -3.0106   23.0998 C   0  0  0  0  0  0  0  0  0  0  0  0
   10.2148   -3.4364   25.4200 C   0  0  0  0  0  0  0  0  0  0  0  0
    9.7853   -1.1840   24.4927 C   0  0  0  0  0  0  0  0  0  0  0  0
    5.0276   -8.5227   17.5352 C   0  0  0  0  0  0  0  0  0  0  0  0
    9.8187   -2.0895   25.5800 C   0  0  0  0  0  0  0  0  0  0  0  0
    5.6473   -8.7216   15.3158 C   0  0  0  0  0  0  0  0  0  0  0  0
   10.7581   -3.1233   19.4720 N   0  0  0  0  0  0  0  0  0  0  0  0
    9.9571   -4.0573   16.8866 C   0  0  0  0  0  0  0  0  0  0  0  0
    7.6213   -6.5618   16.0087 C   0  0  0  0  0  0  0  0  0  0  0  0
   10.8583   -2.6527   20.7222 C   0  0  0  0  0  0  0  0  0  0  0  0
   10.6412   -3.5089   21.7936 C   0  0  0  0  0  0  0  0  0  0  0  0
   10.4972   -3.8968   24.1589 C   0  0  0  0  0  0  0  0  0  0  0  0
    5.9260   -8.2736   16.5517 C   0  0  0  0  0  0  0  0  0  0  0  0
    3.8816   -9.1166   17.2493 C   0  0  0  0  0  0  0  0  0  0  0  0
   10.1297   -1.6575   23.2324 C   0  0  0  0  0  0  0  0  0  0  0  0
    9.4684   -1.6929   26.7263 F   0  0  0  0  0  0  0  0  0  0  0  0
    7.7963   -7.7906   17.9837 C   0  0  0  0  0  0  0  0  0  0  0  0
   10.5884   -3.0725   16.7902 O   0  0  0  0  0  0  0  0  0  0  0  0
   10.4323   -5.3494   20.3516 C   0  0  0  0  0  0  0  0  0  0  0  0
    7.1156   -7.5454   16.8218 C   0  0  0  0  0  0  0  0  0  0  0  0
   10.3885   -4.4388   19.2773 C   0  0  0  0  0  0  0  0  0  0  0  0
    4.5160   -9.3822   15.0841 C   0  0  0  0  0  0  0  0  0  0  0  0
  1  3  4  0
  1 24  4  0
  2  6  4  0
  2 15  4  0
  3  5  4  0
  3  6  4  0
  4 21  4  0
  4 29  4  0
  5 15  4  0
  5 28  1  0
  6 16  4  0
  7 18  4  0
  7 26  4  0
  8 18  1  0
  8 19  4  0
  8 22  4  0
  9 12  4  0
  9 19  4  0
 10 12  4  0
 10 22  4  0
 11 20  4  0
 11 21  4  0
 12 23  1  0
 13 20  4  0
 13 29  4  0
 14 17  4  0
 14 28  4  0
 15 25  2  0
 16 27  4  0
 17 18  4  0
 20 27  1  0
 24 27  4  0
 26 28  4  0
M  END
$$$$

 Created by Python create_sdf_string function

 29 33  0  0  0  0  0  0  0  0999 V2000
    8.8270   -7.0288   18.4251 C   0  0  0  0  0  0  0  0  0  0  0  0
    9.1576   -4.6236   15.8860 O   0  0  0  0  0  0  0  0  0  0  0  0
    9.1509   -5.9108   17.7177 C   0  0  0  0  0  0  0  0  0  0  0  0
    3.6373   -9.5349   16.0582 N   0  0  0  0  0  0  0  0  0  0  0  0
    9.9275   -4.8001   18.0438 N   0  0  0  0  0  0  0  0  0  0  0  0
    8.5908   -5.7425   16.4412 C   0  0  0  0  0  0  0  0  0  0  0  0
   10.5993   -4.8981   21.6068 C   0  0  0  0  0  0  0  0  0  0  0  0
   10.4258   -3.0106   23.0998 C   0  0  0  0  0  0  0  0  0  0  0  0
   10.2148   -3.4364   25.4200 C   0  0  0  0  0  0  0  0  0  0  0  0
    9.7853   -1.1840   24.4927 C   0  0  0  0  0  0  0  0  0  0  0  0
    5.0276   -8.5227   17.5352 C   0  0  0  0  0  0  0  0  0  0  0  0
    9.8187   -2.0895   25.5800 C   0  0  0  0  0  0  0  0  0  0  0  0
    5.6473   -8.7216   15.3158 C   0  0  0  0  0  0  0  0  0  0  0  0
   10.7581   -3.1233   19.4720 N   0  0  0  0  0  0  0  0  0  0  0  0
    9.9571   -4.0573   16.8866 C   0  0  0  0  0  0  0  0  0  0  0  0
    7.6213   -6.5618   16.0087 C   0  0  0  0  0  0  0  0  0  0  0  0
   10.8583   -2.6527   20.7222 C   0  0  0  0  0  0  0  0  0  0  0  0
   10.6412   -3.5089   21.7936 C   0  0  0  0  0  0  0  0  0  0  0  0
   10.4972   -3.8968   24.1589 C   0  0  0  0  0  0  0  0  0  0  0  0
    5.9260   -8.2736   16.5517 C   0  0  0  0  0  0  0  0  0  0  0  0
    3.8816   -9.1166   17.2493 C   0  0  0  0  0  0  0  0  0  0  0  0
   10.1297   -1.6575   23.2324 C   0  0  0  0  0  0  0  0  0  0  0  0
    9.4684   -1.6929   26.7263 F   0  0  0  0  0  0  0  0  0  0  0  0
    7.7963   -7.7906   17.9837 C   0  0  0  0  0  0  0  0  0  0  0  0
   10.5884   -3.0725   16.7902 O   0  0  0  0  0  0  0  0  0  0  0  0
   10.4323   -5.3494   20.3516 C   0  0  0  0  0  0  0  0  0  0  0  0
    7.1156   -7.5454   16.8218 C   0  0  0  0  0  0  0  0  0  0  0  0
   10.3885   -4.4388   19.2773 C   0  0  0  0  0  0  0  0  0  0  0  0
    4.5160   -9.3822   15.0841 C   0  0  0  0  0  0  0  0  0  0  0  0
  1  3  4  0
  1 24  4  0
  2  6  4  0
  2 15  4  0
  3  5  4  0
  3  6  4  0
  4 21  4  0
  4 29  4  0
  5 15  4  0
  5 28  1  0
  6 16  4  0
  7 18  4  0
  7 26  4  0
  8 18  1  0
  8 19  4  0
  8 22  4  0
  9 12  4  0
  9 19  4  0
 10 12  4  0
 10 22  4  0
 11 20  4  0
 11 21  4  0
 12 23  1  0
 13 20  4  0
 13 29  4  0
 14 17  4  0
 14 28  4  0
 15 25  2  0
 16 27  4  0
 17 18  4  0
 20 27  1  0
 24 27  4  0
 26 28  4  0
M  END
$$$$

 Created by Python create_sdf_string function

 29 33  0  0  0  0  0  0  0  0999 V2000
    8.8270   -7.0288   18.4251 C   0  0  0  0  0  0  0  0  0  0  0  0
    9.1576   -4.6236   15.8860 O   0  0  0  0  0  0  0  0  0  0  0  0
    9.1509   -5.9108   17.7177 C   0  0  0  0  0  0  0  0  0  0  0  0
    3.6373   -9.5349   16.0582 N   0  0  0  0  0  0  0  0  0  0  0  0
    9.9275   -4.8001   18.0438 N   0  0  0  0  0  0  0  0  0  0  0  0
    8.5908   -5.7425   16.4412 C   0  0  0  0  0  0  0  0  0  0  0  0
   10.5993   -4.8981   21.6068 C   0  0  0  0  0  0  0  0  0  0  0  0
   10.4258   -3.0106   23.0998 C   0  0  0  0  0  0  0  0  0  0  0  0
   10.2148   -3.4364   25.4200 C   0  0  0  0  0  0  0  0  0  0  0  0
    9.7853   -1.1840   24.4927 C   0  0  0  0  0  0  0  0  0  0  0  0
    5.0276   -8.5227   17.5352 C   0  0  0  0  0  0  0  0  0  0  0  0
    9.8187   -2.0895   25.5800 C   0  0  0  0  0  0  0  0  0  0  0  0
    5.6473   -8.7216   15.3158 C   0  0  0  0  0  0  0  0  0  0  0  0
   10.7581   -3.1233   19.4720 N   0  0  0  0  0  0  0  0  0  0  0  0
    9.9571   -4.0573   16.8866 C   0  0  0  0  0  0  0  0  0  0  0  0
    7.6213   -6.5618   16.0087 C   0  0  0  0  0  0  0  0  0  0  0  0
   10.8583   -2.6527   20.7222 C   0  0  0  0  0  0  0  0  0  0  0  0
   10.6412   -3.5089   21.7936 C   0  0  0  0  0  0  0  0  0  0  0  0
   10.4972   -3.8968   24.1589 C   0  0  0  0  0  0  0  0  0  0  0  0
    5.9260   -8.2736   16.5517 C   0  0  0  0  0  0  0  0  0  0  0  0
    3.8816   -9.1166   17.2493 C   0  0  0  0  0  0  0  0  0  0  0  0
   10.1297   -1.6575   23.2324 C   0  0  0  0  0  0  0  0  0  0  0  0
    9.4684   -1.6929   26.7263 F   0  0  0  0  0  0  0  0  0  0  0  0
    7.7963   -7.7906   17.9837 C   0  0  0  0  0  0  0  0  0  0  0  0
   10.5884   -3.0725   16.7902 O   0  0  0  0  0  0  0  0  0  0  0  0
   10.4323   -5.3494   20.3516 C   0  0  0  0  0  0  0  0  0  0  0  0
    7.1156   -7.5454   16.8218 C   0  0  0  0  0  0  0  0  0  0  0  0
   10.3885   -4.4388   19.2773 C   0  0  0  0  0  0  0  0  0  0  0  0
    4.5160   -9.3822   15.0841 C   0  0  0  0  0  0  0  0  0  0  0  0
  1  3  4  0
  1 24  4  0
  2  6  4  0
  2 15  4  0
  3  5  4  0
  3  6  4  0
  4 21  4  0
  4 29  4  0
  5 15  4  0
  5 28  1  0
  6 16  4  0
  7 18  4  0
  7 26  4  0
  8 18  1  0
  8 19  4  0
  8 22  4  0
  9 12  4  0
  9 19  4  0
 10 12  4  0
 10 22  4  0
 11 20  4  0
 11 21  4  0
 12 23  1  0
 13 20  4  0
 13 29  4  0
 14 17  4  0
 14 28  4  0
 15 25  2  0
 16 27  4  0
 17 18  4  0
 20 27  1  0
 24 27  4  0
 26 28  4  0
M  END
$$$$

 Created by Python create_sdf_string function

 29 33  0  0  0  0  0  0  0  0999 V2000
    8.8270   -7.0288   18.4251 C   0  0  0  0  0  0  0  0  0  0  0  0
    9.1576   -4.6236   15.8860 O   0  0  0  0  0  0  0  0  0  0  0  0
    9.1509   -5.9108   17.7177 C   0  0  0  0  0  0  0  0  0  0  0  0
    3.6373   -9.5349   16.0582 N   0  0  0  0  0  0  0  0  0  0  0  0
    9.9275   -4.8001   18.0438 N   0  0  0  0  0  0  0  0  0  0  0  0
    8.5908   -5.7425   16.4412 C   0  0  0  0  0  0  0  0  0  0  0  0
   10.5993   -4.8981   21.6068 C   0  0  0  0  0  0  0  0  0  0  0  0
   10.4258   -3.0106   23.0998 C   0  0  0  0  0  0  0  0  0  0  0  0
   10.2148   -3.4364   25.4200 C   0  0  0  0  0  0  0  0  0  0  0  0
    9.7853   -1.1840   24.4927 C   0  0  0  0  0  0  0  0  0  0  0  0
    5.0276   -8.5227   17.5352 C   0  0  0  0  0  0  0  0  0  0  0  0
    9.8187   -2.0895   25.5800 C   0  0  0  0  0  0  0  0  0  0  0  0
    5.6473   -8.7216   15.3158 C   0  0  0  0  0  0  0  0  0  0  0  0
   10.7581   -3.1233   19.4720 N   0  0  0  0  0  0  0  0  0  0  0  0
    9.9571   -4.0573   16.8866 C   0  0  0  0  0  0  0  0  0  0  0  0
    7.6213   -6.5618   16.0087 C   0  0  0  0  0  0  0  0  0  0  0  0
   10.8583   -2.6527   20.7222 C   0  0  0  0  0  0  0  0  0  0  0  0
   10.6412   -3.5089   21.7936 C   0  0  0  0  0  0  0  0  0  0  0  0
   10.4972   -3.8968   24.1589 C   0  0  0  0  0  0  0  0  0  0  0  0
    5.9260   -8.2736   16.5517 C   0  0  0  0  0  0  0  0  0  0  0  0
    3.8816   -9.1166   17.2493 C   0  0  0  0  0  0  0  0  0  0  0  0
   10.1297   -1.6575   23.2324 C   0  0  0  0  0  0  0  0  0  0  0  0
    9.4684   -1.6929   26.7263 F   0  0  0  0  0  0  0  0  0  0  0  0
    7.7963   -7.7906   17.9837 C   0  0  0  0  0  0  0  0  0  0  0  0
   10.5884   -3.0725   16.7902 O   0  0  0  0  0  0  0  0  0  0  0  0
   10.4323   -5.3494   20.3516 C   0  0  0  0  0  0  0  0  0  0  0  0
    7.1156   -7.5454   16.8218 C   0  0  0  0  0  0  0  0  0  0  0  0
   10.3885   -4.4388   19.2773 C   0  0  0  0  0  0  0  0  0  0  0  0
    4.5160   -9.3822   15.0841 C   0  0  0  0  0  0  0  0  0  0  0  0
  1  3  4  0
  1 24  4  0
  2  6  4  0
  2 15  4  0
  3  5  4  0
  3  6  4  0
  4 21  4  0
  4 29  4  0
  5 15  4  0
  5 28  1  0
  6 16  4  0
  7 18  4  0
  7 26  4  0
  8 18  1  0
  8 19  4  0
  8 22  4  0
  9 12  4  0
  9 19  4  0
 10 12  4  0
 10 22  4  0
 11 20  4  0
 11 21  4  0
 12 23  1  0
 13 20  4  0
 13 29  4  0
 14 17  4  0
 14 28  4  0
 15 25  2  0
 16 27  4  0
 17 18  4  0
 20 27  1  0
 24 27  4  0
 26 28  4  0
M  END
$$$$

 Created by Python create_sdf_string function

 29 33  0  0  0  0  0  0  0  0999 V2000
    8.8270   -7.0288   18.4251 C   0  0  0  0  0  0  0  0  0  0  0  0
    9.1576   -4.6236   15.8860 O   0  0  0  0  0  0  0  0  0  0  0  0
    9.1509   -5.9108   17.7177 C   0  0  0  0  0  0  0  0  0  0  0  0
    3.6373   -9.5349   16.0582 N   0  0  0  0  0  0  0  0  0  0  0  0
    9.9275   -4.8001   18.0438 N   0  0  0  0  0  0  0  0  0  0  0  0
    8.5908   -5.7425   16.4412 C   0  0  0  0  0  0  0  0  0  0  0  0
   10.5993   -4.8981   21.6068 C   0  0  0  0  0  0  0  0  0  0  0  0
   10.4258   -3.0106   23.0998 C   0  0  0  0  0  0  0  0  0  0  0  0
   10.2148   -3.4364   25.4200 C   0  0  0  0  0  0  0  0  0  0  0  0
    9.7853   -1.1840   24.4927 C   0  0  0  0  0  0  0  0  0  0  0  0
    5.0276   -8.5227   17.5352 C   0  0  0  0  0  0  0  0  0  0  0  0
    9.8187   -2.0895   25.5800 C   0  0  0  0  0  0  0  0  0  0  0  0
    5.6473   -8.7216   15.3158 C   0  0  0  0  0  0  0  0  0  0  0  0
   10.7581   -3.1233   19.4720 N   0  0  0  0  0  0  0  0  0  0  0  0
    9.9571   -4.0573   16.8866 C   0  0  0  0  0  0  0  0  0  0  0  0
    7.6213   -6.5618   16.0087 C   0  0  0  0  0  0  0  0  0  0  0  0
   10.8583   -2.6527   20.7222 C   0  0  0  0  0  0  0  0  0  0  0  0
   10.6412   -3.5089   21.7936 C   0  0  0  0  0  0  0  0  0  0  0  0
   10.4972   -3.8968   24.1589 C   0  0  0  0  0  0  0  0  0  0  0  0
    5.9260   -8.2736   16.5517 C   0  0  0  0  0  0  0  0  0  0  0  0
    3.8816   -9.1166   17.2493 C   0  0  0  0  0  0  0  0  0  0  0  0
   10.1297   -1.6575   23.2324 C   0  0  0  0  0  0  0  0  0  0  0  0
    9.4684   -1.6929   26.7263 F   0  0  0  0  0  0  0  0  0  0  0  0
    7.7963   -7.7906   17.9837 C   0  0  0  0  0  0  0  0  0  0  0  0
   10.5884   -3.0725   16.7902 O   0  0  0  0  0  0  0  0  0  0  0  0
   10.4323   -5.3494   20.3516 C   0  0  0  0  0  0  0  0  0  0  0  0
    7.1156   -7.5454   16.8218 C   0  0  0  0  0  0  0  0  0  0  0  0
   10.3885   -4.4388   19.2773 C   0  0  0  0  0  0  0  0  0  0  0  0
    4.5160   -9.3822   15.0841 C   0  0  0  0  0  0  0  0  0  0  0  0
  1  3  4  0
  1 24  4  0
  2  6  4  0
  2 15  4  0
  3  5  4  0
  3  6  4  0
  4 21  4  0
  4 29  4  0
  5 15  4  0
  5 28  1  0
  6 16  4  0
  7 18  4  0
  7 26  4  0
  8 18  1  0
  8 19  4  0
  8 22  4  0
  9 12  4  0
  9 19  4  0
 10 12  4  0
 10 22  4  0
 11 20  4  0
 11 21  4  0
 12 23  1  0
 13 20  4  0
 13 29  4  0
 14 17  4  0
 14 28  4  0
 15 25  2  0
 16 27  4  0
 17 18  4  0
 20 27  1  0
 24 27  4  0
 26 28  4  0
M  END
$$$$

 Created by Python create_sdf_string function

 29 33  0  0  0  0  0  0  0  0999 V2000
    8.8270   -7.0288   18.4251 C   0  0  0  0  0  0  0  0  0  0  0  0
    9.1576   -4.6236   15.8860 O   0  0  0  0  0  0  0  0  0  0  0  0
    9.1509   -5.9108   17.7177 C   0  0  0  0  0  0  0  0  0  0  0  0
    3.6373   -9.5349   16.0582 N   0  0  0  0  0  0  0  0  0  0  0  0
    9.9275   -4.8001   18.0438 N   0  0  0  0  0  0  0  0  0  0  0  0
    8.5908   -5.7425   16.4412 C   0  0  0  0  0  0  0  0  0  0  0  0
   10.5993   -4.8981   21.6068 C   0  0  0  0  0  0  0  0  0  0  0  0
   10.4258   -3.0106   23.0998 C   0  0  0  0  0  0  0  0  0  0  0  0
   10.2148   -3.4364   25.4200 C   0  0  0  0  0  0  0  0  0  0  0  0
    9.7853   -1.1840   24.4927 C   0  0  0  0  0  0  0  0  0  0  0  0
    5.0276   -8.5227   17.5352 C   0  0  0  0  0  0  0  0  0  0  0  0
    9.8187   -2.0895   25.5800 C   0  0  0  0  0  0  0  0  0  0  0  0
    5.6473   -8.7216   15.3158 C   0  0  0  0  0  0  0  0  0  0  0  0
   10.7581   -3.1233   19.4720 N   0  0  0  0  0  0  0  0  0  0  0  0
    9.9571   -4.0573   16.8866 C   0  0  0  0  0  0  0  0  0  0  0  0
    7.6213   -6.5618   16.0087 C   0  0  0  0  0  0  0  0  0  0  0  0
   10.8583   -2.6527   20.7222 C   0  0  0  0  0  0  0  0  0  0  0  0
   10.6412   -3.5089   21.7936 C   0  0  0  0  0  0  0  0  0  0  0  0
   10.4972   -3.8968   24.1589 C   0  0  0  0  0  0  0  0  0  0  0  0
    5.9260   -8.2736   16.5517 C   0  0  0  0  0  0  0  0  0  0  0  0
    3.8816   -9.1166   17.2493 C   0  0  0  0  0  0  0  0  0  0  0  0
   10.1297   -1.6575   23.2324 C   0  0  0  0  0  0  0  0  0  0  0  0
    9.4684   -1.6929   26.7263 F   0  0  0  0  0  0  0  0  0  0  0  0
    7.7963   -7.7906   17.9837 C   0  0  0  0  0  0  0  0  0  0  0  0
   10.5884   -3.0725   16.7902 O   0  0  0  0  0  0  0  0  0  0  0  0
   10.4323   -5.3494   20.3516 C   0  0  0  0  0  0  0  0  0  0  0  0
    7.1156   -7.5454   16.8218 C   0  0  0  0  0  0  0  0  0  0  0  0
   10.3885   -4.4388   19.2773 C   0  0  0  0  0  0  0  0  0  0  0  0
    4.5160   -9.3822   15.0841 C   0  0  0  0  0  0  0  0  0  0  0  0
  1  3  4  0
  1 24  4  0
  2  6  4  0
  2 15  4  0
  3  5  4  0
  3  6  4  0
  4 21  4  0
  4 29  4  0
  5 15  4  0
  5 28  1  0
  6 16  4  0
  7 18  4  0
  7 26  4  0
  8 18  1  0
  8 19  4  0
  8 22  4  0
  9 12  4  0
  9 19  4  0
 10 12  4  0
 10 22  4  0
 11 20  4  0
 11 21  4  0
 12 23  1  0
 13 20  4  0
 13 29  4  0
 14 17  4  0
 14 28  4  0
 15 25  2  0
 16 27  4  0
 17 18  4  0
 20 27  1  0
 24 27  4  0
 26 28  4  0
M  END
$$$$

 Created by Python create_sdf_string function

 29 33  0  0  0  0  0  0  0  0999 V2000
    8.8270   -7.0288   18.4251 C   0  0  0  0  0  0  0  0  0  0  0  0
    9.1576   -4.6236   15.8860 O   0  0  0  0  0  0  0  0  0  0  0  0
    9.1509   -5.9108   17.7177 C   0  0  0  0  0  0  0  0  0  0  0  0
    3.6373   -9.5349   16.0582 N   0  0  0  0  0  0  0  0  0  0  0  0
    9.9275   -4.8001   18.0438 N   0  0  0  0  0  0  0  0  0  0  0  0
    8.5908   -5.7425   16.4412 C   0  0  0  0  0  0  0  0  0  0  0  0
   10.5993   -4.8981   21.6068 C   0  0  0  0  0  0  0  0  0  0  0  0
   10.4258   -3.0106   23.0998 C   0  0  0  0  0  0  0  0  0  0  0  0
   10.2148   -3.4364   25.4200 C   0  0  0  0  0  0  0  0  0  0  0  0
    9.7853   -1.1840   24.4927 C   0  0  0  0  0  0  0  0  0  0  0  0
    5.0276   -8.5227   17.5352 C   0  0  0  0  0  0  0  0  0  0  0  0
    9.8187   -2.0895   25.5800 C   0  0  0  0  0  0  0  0  0  0  0  0
    5.6473   -8.7216   15.3158 C   0  0  0  0  0  0  0  0  0  0  0  0
   10.7581   -3.1233   19.4720 N   0  0  0  0  0  0  0  0  0  0  0  0
    9.9571   -4.0573   16.8866 C   0  0  0  0  0  0  0  0  0  0  0  0
    7.6213   -6.5618   16.0087 C   0  0  0  0  0  0  0  0  0  0  0  0
   10.8583   -2.6527   20.7222 C   0  0  0  0  0  0  0  0  0  0  0  0
   10.6412   -3.5089   21.7936 C   0  0  0  0  0  0  0  0  0  0  0  0
   10.4972   -3.8968   24.1589 C   0  0  0  0  0  0  0  0  0  0  0  0
    5.9260   -8.2736   16.5517 C   0  0  0  0  0  0  0  0  0  0  0  0
    3.8816   -9.1166   17.2493 C   0  0  0  0  0  0  0  0  0  0  0  0
   10.1297   -1.6575   23.2324 C   0  0  0  0  0  0  0  0  0  0  0  0
    9.4684   -1.6929   26.7263 F   0  0  0  0  0  0  0  0  0  0  0  0
    7.7963   -7.7906   17.9837 C   0  0  0  0  0  0  0  0  0  0  0  0
   10.5884   -3.0725   16.7902 O   0  0  0  0  0  0  0  0  0  0  0  0
   10.4323   -5.3494   20.3516 C   0  0  0  0  0  0  0  0  0  0  0  0
    7.1156   -7.5454   16.8218 C   0  0  0  0  0  0  0  0  0  0  0  0
   10.3885   -4.4388   19.2773 C   0  0  0  0  0  0  0  0  0  0  0  0
    4.5160   -9.3822   15.0841 C   0  0  0  0  0  0  0  0  0  0  0  0
  1  3  4  0
  1 24  4  0
  2  6  4  0
  2 15  4  0
  3  5  4  0
  3  6  4  0
  4 21  4  0
  4 29  4  0
  5 15  4  0
  5 28  1  0
  6 16  4  0
  7 18  4  0
  7 26  4  0
  8 18  1  0
  8 19  4  0
  8 22  4  0
  9 12  4  0
  9 19  4  0
 10 12  4  0
 10 22  4  0
 11 20  4  0
 11 21  4  0
 12 23  1  0
 13 20  4  0
 13 29  4  0
 14 17  4  0
 14 28  4  0
 15 25  2  0
 16 27  4  0
 17 18  4  0
 20 27  1  0
 24 27  4  0
 26 28  4  0
M  END
$$$$

 Created by Python create_sdf_string function

 29 33  0  0  0  0  0  0  0  0999 V2000
    8.8270   -7.0288   18.4251 C   0  0  0  0  0  0  0  0  0  0  0  0
    9.1576   -4.6236   15.8860 O   0  0  0  0  0  0  0  0  0  0  0  0
    9.1509   -5.9108   17.7177 C   0  0  0  0  0  0  0  0  0  0  0  0
    3.6373   -9.5349   16.0582 N   0  0  0  0  0  0  0  0  0  0  0  0
    9.9275   -4.8001   18.0438 N   0  0  0  0  0  0  0  0  0  0  0  0
    8.5908   -5.7425   16.4412 C   0  0  0  0  0  0  0  0  0  0  0  0
   10.5993   -4.8981   21.6068 C   0  0  0  0  0  0  0  0  0  0  0  0
   10.4258   -3.0106   23.0998 C   0  0  0  0  0  0  0  0  0  0  0  0
   10.2148   -3.4364   25.4200 C   0  0  0  0  0  0  0  0  0  0  0  0
    9.7853   -1.1840   24.4927 C   0  0  0  0  0  0  0  0  0  0  0  0
    5.0276   -8.5227   17.5352 C   0  0  0  0  0  0  0  0  0  0  0  0
    9.8187   -2.0895   25.5800 C   0  0  0  0  0  0  0  0  0  0  0  0
    5.6473   -8.7216   15.3158 C   0  0  0  0  0  0  0  0  0  0  0  0
   10.7581   -3.1233   19.4720 N   0  0  0  0  0  0  0  0  0  0  0  0
    9.9571   -4.0573   16.8866 C   0  0  0  0  0  0  0  0  0  0  0  0
    7.6213   -6.5618   16.0087 C   0  0  0  0  0  0  0  0  0  0  0  0
   10.8583   -2.6527   20.7222 C   0  0  0  0  0  0  0  0  0  0  0  0
   10.6412   -3.5089   21.7936 C   0  0  0  0  0  0  0  0  0  0  0  0
   10.4972   -3.8968   24.1589 C   0  0  0  0  0  0  0  0  0  0  0  0
    5.9260   -8.2736   16.5517 C   0  0  0  0  0  0  0  0  0  0  0  0
    3.8816   -9.1166   17.2493 C   0  0  0  0  0  0  0  0  0  0  0  0
   10.1297   -1.6575   23.2324 C   0  0  0  0  0  0  0  0  0  0  0  0
    9.4684   -1.6929   26.7263 F   0  0  0  0  0  0  0  0  0  0  0  0
    7.7963   -7.7906   17.9837 C   0  0  0  0  0  0  0  0  0  0  0  0
   10.5884   -3.0725   16.7902 O   0  0  0  0  0  0  0  0  0  0  0  0
   10.4323   -5.3494   20.3516 C   0  0  0  0  0  0  0  0  0  0  0  0
    7.1156   -7.5454   16.8218 C   0  0  0  0  0  0  0  0  0  0  0  0
   10.3885   -4.4388   19.2773 C   0  0  0  0  0  0  0  0  0  0  0  0
    4.5160   -9.3822   15.0841 C   0  0  0  0  0  0  0  0  0  0  0  0
  1  3  4  0
  1 24  4  0
  2  6  4  0
  2 15  4  0
  3  5  4  0
  3  6  4  0
  4 21  4  0
  4 29  4  0
  5 15  4  0
  5 28  1  0
  6 16  4  0
  7 18  4  0
  7 26  4  0
  8 18  1  0
  8 19  4  0
  8 22  4  0
  9 12  4  0
  9 19  4  0
 10 12  4  0
 10 22  4  0
 11 20  4  0
 11 21  4  0
 12 23  1  0
 13 20  4  0
 13 29  4  0
 14 17  4  0
 14 28  4  0
 15 25  2  0
 16 27  4  0
 17 18  4  0
 20 27  1  0
 24 27  4  0
 26 28  4  0
M  END
$$$$

 Created by Python create_sdf_string function

 29 33  0  0  0  0  0  0  0  0999 V2000
    8.8270   -7.0288   18.4251 C   0  0  0  0  0  0  0  0  0  0  0  0
    9.1576   -4.6236   15.8860 O   0  0  0  0  0  0  0  0  0  0  0  0
    9.1509   -5.9108   17.7177 C   0  0  0  0  0  0  0  0  0  0  0  0
    3.6373   -9.5349   16.0582 N   0  0  0  0  0  0  0  0  0  0  0  0
    9.9275   -4.8001   18.0438 N   0  0  0  0  0  0  0  0  0  0  0  0
    8.5908   -5.7425   16.4412 C   0  0  0  0  0  0  0  0  0  0  0  0
   10.5993   -4.8981   21.6068 C   0  0  0  0  0  0  0  0  0  0  0  0
   10.4258   -3.0106   23.0998 C   0  0  0  0  0  0  0  0  0  0  0  0
   10.2148   -3.4364   25.4200 C   0  0  0  0  0  0  0  0  0  0  0  0
    9.7853   -1.1840   24.4927 C   0  0  0  0  0  0  0  0  0  0  0  0
    5.0276   -8.5227   17.5352 C   0  0  0  0  0  0  0  0  0  0  0  0
    9.8187   -2.0895   25.5800 C   0  0  0  0  0  0  0  0  0  0  0  0
    5.6473   -8.7216   15.3158 C   0  0  0  0  0  0  0  0  0  0  0  0
   10.7581   -3.1233   19.4720 N   0  0  0  0  0  0  0  0  0  0  0  0
    9.9571   -4.0573   16.8866 C   0  0  0  0  0  0  0  0  0  0  0  0
    7.6213   -6.5618   16.0087 C   0  0  0  0  0  0  0  0  0  0  0  0
   10.8583   -2.6527   20.7222 C   0  0  0  0  0  0  0  0  0  0  0  0
   10.6412   -3.5089   21.7936 C   0  0  0  0  0  0  0  0  0  0  0  0
   10.4972   -3.8968   24.1589 C   0  0  0  0  0  0  0  0  0  0  0  0
    5.9260   -8.2736   16.5517 C   0  0  0  0  0  0  0  0  0  0  0  0
    3.8816   -9.1166   17.2493 C   0  0  0  0  0  0  0  0  0  0  0  0
   10.1297   -1.6575   23.2324 C   0  0  0  0  0  0  0  0  0  0  0  0
    9.4684   -1.6929   26.7263 F   0  0  0  0  0  0  0  0  0  0  0  0
    7.7963   -7.7906   17.9837 C   0  0  0  0  0  0  0  0  0  0  0  0
   10.5884   -3.0725   16.7902 O   0  0  0  0  0  0  0  0  0  0  0  0
   10.4323   -5.3494   20.3516 C   0  0  0  0  0  0  0  0  0  0  0  0
    7.1156   -7.5454   16.8218 C   0  0  0  0  0  0  0  0  0  0  0  0
   10.3885   -4.4388   19.2773 C   0  0  0  0  0  0  0  0  0  0  0  0
    4.5160   -9.3822   15.0841 C   0  0  0  0  0  0  0  0  0  0  0  0
  1  3  4  0
  1 24  4  0
  2  6  4  0
  2 15  4  0
  3  5  4  0
  3  6  4  0
  4 21  4  0
  4 29  4  0
  5 15  4  0
  5 28  1  0
  6 16  4  0
  7 18  4  0
  7 26  4  0
  8 18  1  0
  8 19  4  0
  8 22  4  0
  9 12  4  0
  9 19  4  0
 10 12  4  0
 10 22  4  0
 11 20  4  0
 11 21  4  0
 12 23  1  0
 13 20  4  0
 13 29  4  0
 14 17  4  0
 14 28  4  0
 15 25  2  0
 16 27  4  0
 17 18  4  0
 20 27  1  0
 24 27  4  0
 26 28  4  0
M  END
$$$$

 Created by Python create_sdf_string function

 29 33  0  0  0  0  0  0  0  0999 V2000
    8.8270   -7.0288   18.4251 C   0  0  0  0  0  0  0  0  0  0  0  0
    9.1576   -4.6236   15.8860 O   0  0  0  0  0  0  0  0  0  0  0  0
    9.1509   -5.9108   17.7177 C   0  0  0  0  0  0  0  0  0  0  0  0
    3.6373   -9.5349   16.0582 N   0  0  0  0  0  0  0  0  0  0  0  0
    9.9275   -4.8001   18.0438 N   0  0  0  0  0  0  0  0  0  0  0  0
    8.5908   -5.7425   16.4412 C   0  0  0  0  0  0  0  0  0  0  0  0
   10.5993   -4.8981   21.6068 C   0  0  0  0  0  0  0  0  0  0  0  0
   10.4258   -3.0106   23.0998 C   0  0  0  0  0  0  0  0  0  0  0  0
   10.2148   -3.4364   25.4200 C   0  0  0  0  0  0  0  0  0  0  0  0
    9.7853   -1.1840   24.4927 C   0  0  0  0  0  0  0  0  0  0  0  0
    5.0276   -8.5227   17.5352 C   0  0  0  0  0  0  0  0  0  0  0  0
    9.8187   -2.0895   25.5800 C   0  0  0  0  0  0  0  0  0  0  0  0
    5.6473   -8.7216   15.3158 C   0  0  0  0  0  0  0  0  0  0  0  0
   10.7581   -3.1233   19.4720 N   0  0  0  0  0  0  0  0  0  0  0  0
    9.9571   -4.0573   16.8866 C   0  0  0  0  0  0  0  0  0  0  0  0
    7.6213   -6.5618   16.0087 C   0  0  0  0  0  0  0  0  0  0  0  0
   10.8583   -2.6527   20.7222 C   0  0  0  0  0  0  0  0  0  0  0  0
   10.6412   -3.5089   21.7936 C   0  0  0  0  0  0  0  0  0  0  0  0
   10.4972   -3.8968   24.1589 C   0  0  0  0  0  0  0  0  0  0  0  0
    5.9260   -8.2736   16.5517 C   0  0  0  0  0  0  0  0  0  0  0  0
    3.8816   -9.1166   17.2493 C   0  0  0  0  0  0  0  0  0  0  0  0
   10.1297   -1.6575   23.2324 C   0  0  0  0  0  0  0  0  0  0  0  0
    9.4684   -1.6929   26.7263 F   0  0  0  0  0  0  0  0  0  0  0  0
    7.7963   -7.7906   17.9837 C   0  0  0  0  0  0  0  0  0  0  0  0
   10.5884   -3.0725   16.7902 O   0  0  0  0  0  0  0  0  0  0  0  0
   10.4323   -5.3494   20.3516 C   0  0  0  0  0  0  0  0  0  0  0  0
    7.1156   -7.5454   16.8218 C   0  0  0  0  0  0  0  0  0  0  0  0
   10.3885   -4.4388   19.2773 C   0  0  0  0  0  0  0  0  0  0  0  0
    4.5160   -9.3822   15.0841 C   0  0  0  0  0  0  0  0  0  0  0  0
  1  3  4  0
  1 24  4  0
  2  6  4  0
  2 15  4  0
  3  5  4  0
  3  6  4  0
  4 21  4  0
  4 29  4  0
  5 15  4  0
  5 28  1  0
  6 16  4  0
  7 18  4  0
  7 26  4  0
  8 18  1  0
  8 19  4  0
  8 22  4  0
  9 12  4  0
  9 19  4  0
 10 12  4  0
 10 22  4  0
 11 20  4  0
 11 21  4  0
 12 23  1  0
 13 20  4  0
 13 29  4  0
 14 17  4  0
 14 28  4  0
 15 25  2  0
 16 27  4  0
 17 18  4  0
 20 27  1  0
 24 27  4  0
 26 28  4  0
M  END
$$$$

 Created by Python create_sdf_string function

 29 33  0  0  0  0  0  0  0  0999 V2000
    8.8270   -7.0288   18.4251 C   0  0  0  0  0  0  0  0  0  0  0  0
    9.1576   -4.6236   15.8860 O   0  0  0  0  0  0  0  0  0  0  0  0
    9.1509   -5.9108   17.7177 C   0  0  0  0  0  0  0  0  0  0  0  0
    3.6373   -9.5349   16.0582 N   0  0  0  0  0  0  0  0  0  0  0  0
    9.9275   -4.8001   18.0438 N   0  0  0  0  0  0  0  0  0  0  0  0
    8.5908   -5.7425   16.4412 C   0  0  0  0  0  0  0  0  0  0  0  0
   10.5993   -4.8981   21.6068 C   0  0  0  0  0  0  0  0  0  0  0  0
   10.4258   -3.0106   23.0998 C   0  0  0  0  0  0  0  0  0  0  0  0
   10.2148   -3.4364   25.4200 C   0  0  0  0  0  0  0  0  0  0  0  0
    9.7853   -1.1840   24.4927 C   0  0  0  0  0  0  0  0  0  0  0  0
    5.0276   -8.5227   17.5352 C   0  0  0  0  0  0  0  0  0  0  0  0
    9.8187   -2.0895   25.5800 C   0  0  0  0  0  0  0  0  0  0  0  0
    5.6473   -8.7216   15.3158 C   0  0  0  0  0  0  0  0  0  0  0  0
   10.7581   -3.1233   19.4720 N   0  0  0  0  0  0  0  0  0  0  0  0
    9.9571   -4.0573   16.8866 C   0  0  0  0  0  0  0  0  0  0  0  0
    7.6213   -6.5618   16.0087 C   0  0  0  0  0  0  0  0  0  0  0  0
   10.8583   -2.6527   20.7222 C   0  0  0  0  0  0  0  0  0  0  0  0
   10.6412   -3.5089   21.7936 C   0  0  0  0  0  0  0  0  0  0  0  0
   10.4972   -3.8968   24.1589 C   0  0  0  0  0  0  0  0  0  0  0  0
    5.9260   -8.2736   16.5517 C   0  0  0  0  0  0  0  0  0  0  0  0
    3.8816   -9.1166   17.2493 C   0  0  0  0  0  0  0  0  0  0  0  0
   10.1297   -1.6575   23.2324 C   0  0  0  0  0  0  0  0  0  0  0  0
    9.4684   -1.6929   26.7263 F   0  0  0  0  0  0  0  0  0  0  0  0
    7.7963   -7.7906   17.9837 C   0  0  0  0  0  0  0  0  0  0  0  0
   10.5884   -3.0725   16.7902 O   0  0  0  0  0  0  0  0  0  0  0  0
   10.4323   -5.3494   20.3516 C   0  0  0  0  0  0  0  0  0  0  0  0
    7.1156   -7.5454   16.8218 C   0  0  0  0  0  0  0  0  0  0  0  0
   10.3885   -4.4388   19.2773 C   0  0  0  0  0  0  0  0  0  0  0  0
    4.5160   -9.3822   15.0841 C   0  0  0  0  0  0  0  0  0  0  0  0
  1  3  4  0
  1 24  4  0
  2  6  4  0
  2 15  4  0
  3  5  4  0
  3  6  4  0
  4 21  4  0
  4 29  4  0
  5 15  4  0
  5 28  1  0
  6 16  4  0
  7 18  4  0
  7 26  4  0
  8 18  1  0
  8 19  4  0
  8 22  4  0
  9 12  4  0
  9 19  4  0
 10 12  4  0
 10 22  4  0
 11 20  4  0
 11 21  4  0
 12 23  1  0
 13 20  4  0
 13 29  4  0
 14 17  4  0
 14 28  4  0
 15 25  2  0
 16 27  4  0
 17 18  4  0
 20 27  1  0
 24 27  4  0
 26 28  4  0
M  END
$$$$

 Created by Python create_sdf_string function

 29 33  0  0  0  0  0  0  0  0999 V2000
    8.8270   -7.0288   18.4251 C   0  0  0  0  0  0  0  0  0  0  0  0
    9.1576   -4.6236   15.8860 O   0  0  0  0  0  0  0  0  0  0  0  0
    9.1509   -5.9108   17.7177 C   0  0  0  0  0  0  0  0  0  0  0  0
    3.6373   -9.5349   16.0582 N   0  0  0  0  0  0  0  0  0  0  0  0
    9.9275   -4.8001   18.0438 N   0  0  0  0  0  0  0  0  0  0  0  0
    8.5908   -5.7425   16.4412 C   0  0  0  0  0  0  0  0  0  0  0  0
   10.5993   -4.8981   21.6068 C   0  0  0  0  0  0  0  0  0  0  0  0
   10.4258   -3.0106   23.0998 C   0  0  0  0  0  0  0  0  0  0  0  0
   10.2148   -3.4364   25.4200 C   0  0  0  0  0  0  0  0  0  0  0  0
    9.7853   -1.1840   24.4927 C   0  0  0  0  0  0  0  0  0  0  0  0
    5.0276   -8.5227   17.5352 C   0  0  0  0  0  0  0  0  0  0  0  0
    9.8187   -2.0895   25.5800 C   0  0  0  0  0  0  0  0  0  0  0  0
    5.6473   -8.7216   15.3158 C   0  0  0  0  0  0  0  0  0  0  0  0
   10.7581   -3.1233   19.4720 N   0  0  0  0  0  0  0  0  0  0  0  0
    9.9571   -4.0573   16.8866 C   0  0  0  0  0  0  0  0  0  0  0  0
    7.6213   -6.5618   16.0087 C   0  0  0  0  0  0  0  0  0  0  0  0
   10.8583   -2.6527   20.7222 C   0  0  0  0  0  0  0  0  0  0  0  0
   10.6412   -3.5089   21.7936 C   0  0  0  0  0  0  0  0  0  0  0  0
   10.4972   -3.8968   24.1589 C   0  0  0  0  0  0  0  0  0  0  0  0
    5.9260   -8.2736   16.5517 C   0  0  0  0  0  0  0  0  0  0  0  0
    3.8816   -9.1166   17.2493 C   0  0  0  0  0  0  0  0  0  0  0  0
   10.1297   -1.6575   23.2324 C   0  0  0  0  0  0  0  0  0  0  0  0
    9.4684   -1.6929   26.7263 F   0  0  0  0  0  0  0  0  0  0  0  0
    7.7963   -7.7906   17.9837 C   0  0  0  0  0  0  0  0  0  0  0  0
   10.5884   -3.0725   16.7902 O   0  0  0  0  0  0  0  0  0  0  0  0
   10.4323   -5.3494   20.3516 C   0  0  0  0  0  0  0  0  0  0  0  0
    7.1156   -7.5454   16.8218 C   0  0  0  0  0  0  0  0  0  0  0  0
   10.3885   -4.4388   19.2773 C   0  0  0  0  0  0  0  0  0  0  0  0
    4.5160   -9.3822   15.0841 C   0  0  0  0  0  0  0  0  0  0  0  0
  1  3  4  0
  1 24  4  0
  2  6  4  0
  2 15  4  0
  3  5  4  0
  3  6  4  0
  4 21  4  0
  4 29  4  0
  5 15  4  0
  5 28  1  0
  6 16  4  0
  7 18  4  0
  7 26  4  0
  8 18  1  0
  8 19  4  0
  8 22  4  0
  9 12  4  0
  9 19  4  0
 10 12  4  0
 10 22  4  0
 11 20  4  0
 11 21  4  0
 12 23  1  0
 13 20  4  0
 13 29  4  0
 14 17  4  0
 14 28  4  0
 15 25  2  0
 16 27  4  0
 17 18  4  0
 20 27  1  0
 24 27  4  0
 26 28  4  0
M  END
$$$$

 Created by Python create_sdf_string function

 29 33  0  0  0  0  0  0  0  0999 V2000
    8.8270   -7.0288   18.4251 C   0  0  0  0  0  0  0  0  0  0  0  0
    9.1576   -4.6236   15.8860 O   0  0  0  0  0  0  0  0  0  0  0  0
    9.1509   -5.9108   17.7177 C   0  0  0  0  0  0  0  0  0  0  0  0
    3.6373   -9.5349   16.0582 N   0  0  0  0  0  0  0  0  0  0  0  0
    9.9275   -4.8001   18.0438 N   0  0  0  0  0  0  0  0  0  0  0  0
    8.5908   -5.7425   16.4412 C   0  0  0  0  0  0  0  0  0  0  0  0
   10.5993   -4.8981   21.6068 C   0  0  0  0  0  0  0  0  0  0  0  0
   10.4258   -3.0106   23.0998 C   0  0  0  0  0  0  0  0  0  0  0  0
   10.2148   -3.4364   25.4200 C   0  0  0  0  0  0  0  0  0  0  0  0
    9.7853   -1.1840   24.4927 C   0  0  0  0  0  0  0  0  0  0  0  0
    5.0276   -8.5227   17.5352 C   0  0  0  0  0  0  0  0  0  0  0  0
    9.8187   -2.0895   25.5800 C   0  0  0  0  0  0  0  0  0  0  0  0
    5.6473   -8.7216   15.3158 C   0  0  0  0  0  0  0  0  0  0  0  0
   10.7581   -3.1233   19.4720 N   0  0  0  0  0  0  0  0  0  0  0  0
    9.9571   -4.0573   16.8866 C   0  0  0  0  0  0  0  0  0  0  0  0
    7.6213   -6.5618   16.0087 C   0  0  0  0  0  0  0  0  0  0  0  0
   10.8583   -2.6527   20.7222 C   0  0  0  0  0  0  0  0  0  0  0  0
   10.6412   -3.5089   21.7936 C   0  0  0  0  0  0  0  0  0  0  0  0
   10.4972   -3.8968   24.1589 C   0  0  0  0  0  0  0  0  0  0  0  0
    5.9260   -8.2736   16.5517 C   0  0  0  0  0  0  0  0  0  0  0  0
    3.8816   -9.1166   17.2493 C   0  0  0  0  0  0  0  0  0  0  0  0
   10.1297   -1.6575   23.2324 C   0  0  0  0  0  0  0  0  0  0  0  0
    9.4684   -1.6929   26.7263 F   0  0  0  0  0  0  0  0  0  0  0  0
    7.7963   -7.7906   17.9837 C   0  0  0  0  0  0  0  0  0  0  0  0
   10.5884   -3.0725   16.7902 O   0  0  0  0  0  0  0  0  0  0  0  0
   10.4323   -5.3494   20.3516 C   0  0  0  0  0  0  0  0  0  0  0  0
    7.1156   -7.5454   16.8218 C   0  0  0  0  0  0  0  0  0  0  0  0
   10.3885   -4.4388   19.2773 C   0  0  0  0  0  0  0  0  0  0  0  0
    4.5160   -9.3822   15.0841 C   0  0  0  0  0  0  0  0  0  0  0  0
  1  3  4  0
  1 24  4  0
  2  6  4  0
  2 15  4  0
  3  5  4  0
  3  6  4  0
  4 21  4  0
  4 29  4  0
  5 15  4  0
  5 28  1  0
  6 16  4  0
  7 18  4  0
  7 26  4  0
  8 18  1  0
  8 19  4  0
  8 22  4  0
  9 12  4  0
  9 19  4  0
 10 12  4  0
 10 22  4  0
 11 20  4  0
 11 21  4  0
 12 23  1  0
 13 20  4  0
 13 29  4  0
 14 17  4  0
 14 28  4  0
 15 25  2  0
 16 27  4  0
 17 18  4  0
 20 27  1  0
 24 27  4  0
 26 28  4  0
M  END
$$$$

 Created by Python create_sdf_string function

 29 33  0  0  0  0  0  0  0  0999 V2000
    8.8270   -7.0288   18.4251 C   0  0  0  0  0  0  0  0  0  0  0  0
    9.1576   -4.6236   15.8860 O   0  0  0  0  0  0  0  0  0  0  0  0
    9.1509   -5.9108   17.7177 C   0  0  0  0  0  0  0  0  0  0  0  0
    3.6373   -9.5349   16.0582 N   0  0  0  0  0  0  0  0  0  0  0  0
    9.9275   -4.8001   18.0438 N   0  0  0  0  0  0  0  0  0  0  0  0
    8.5908   -5.7425   16.4412 C   0  0  0  0  0  0  0  0  0  0  0  0
   10.5993   -4.8981   21.6068 C   0  0  0  0  0  0  0  0  0  0  0  0
   10.4258   -3.0106   23.0998 C   0  0  0  0  0  0  0  0  0  0  0  0
   10.2148   -3.4364   25.4200 C   0  0  0  0  0  0  0  0  0  0  0  0
    9.7853   -1.1840   24.4927 C   0  0  0  0  0  0  0  0  0  0  0  0
    5.0276   -8.5227   17.5352 C   0  0  0  0  0  0  0  0  0  0  0  0
    9.8187   -2.0895   25.5800 C   0  0  0  0  0  0  0  0  0  0  0  0
    5.6473   -8.7216   15.3158 C   0  0  0  0  0  0  0  0  0  0  0  0
   10.7581   -3.1233   19.4720 N   0  0  0  0  0  0  0  0  0  0  0  0
    9.9571   -4.0573   16.8866 C   0  0  0  0  0  0  0  0  0  0  0  0
    7.6213   -6.5618   16.0087 C   0  0  0  0  0  0  0  0  0  0  0  0
   10.8583   -2.6527   20.7222 C   0  0  0  0  0  0  0  0  0  0  0  0
   10.6412   -3.5089   21.7936 C   0  0  0  0  0  0  0  0  0  0  0  0
   10.4972   -3.8968   24.1589 C   0  0  0  0  0  0  0  0  0  0  0  0
    5.9260   -8.2736   16.5517 C   0  0  0  0  0  0  0  0  0  0  0  0
    3.8816   -9.1166   17.2493 C   0  0  0  0  0  0  0  0  0  0  0  0
   10.1297   -1.6575   23.2324 C   0  0  0  0  0  0  0  0  0  0  0  0
    9.4684   -1.6929   26.7263 F   0  0  0  0  0  0  0  0  0  0  0  0
    7.7963   -7.7906   17.9837 C   0  0  0  0  0  0  0  0  0  0  0  0
   10.5884   -3.0725   16.7902 O   0  0  0  0  0  0  0  0  0  0  0  0
   10.4323   -5.3494   20.3516 C   0  0  0  0  0  0  0  0  0  0  0  0
    7.1156   -7.5454   16.8218 C   0  0  0  0  0  0  0  0  0  0  0  0
   10.3885   -4.4388   19.2773 C   0  0  0  0  0  0  0  0  0  0  0  0
    4.5160   -9.3822   15.0841 C   0  0  0  0  0  0  0  0  0  0  0  0
  1  3  4  0
  1 24  4  0
  2  6  4  0
  2 15  4  0
  3  5  4  0
  3  6  4  0
  4 21  4  0
  4 29  4  0
  5 15  4  0
  5 28  1  0
  6 16  4  0
  7 18  4  0
  7 26  4  0
  8 18  1  0
  8 19  4  0
  8 22  4  0
  9 12  4  0
  9 19  4  0
 10 12  4  0
 10 22  4  0
 11 20  4  0
 11 21  4  0
 12 23  1  0
 13 20  4  0
 13 29  4  0
 14 17  4  0
 14 28  4  0
 15 25  2  0
 16 27  4  0
 17 18  4  0
 20 27  1  0
 24 27  4  0
 26 28  4  0
M  END
$$$$

 Created by Python create_sdf_string function

 29 33  0  0  0  0  0  0  0  0999 V2000
    8.8270   -7.0288   18.4251 C   0  0  0  0  0  0  0  0  0  0  0  0
    9.1576   -4.6236   15.8860 O   0  0  0  0  0  0  0  0  0  0  0  0
    9.1509   -5.9108   17.7177 C   0  0  0  0  0  0  0  0  0  0  0  0
    3.6373   -9.5349   16.0582 N   0  0  0  0  0  0  0  0  0  0  0  0
    9.9275   -4.8001   18.0438 N   0  0  0  0  0  0  0  0  0  0  0  0
    8.5908   -5.7425   16.4412 C   0  0  0  0  0  0  0  0  0  0  0  0
   10.5993   -4.8981   21.6068 C   0  0  0  0  0  0  0  0  0  0  0  0
   10.4258   -3.0106   23.0998 C   0  0  0  0  0  0  0  0  0  0  0  0
   10.2148   -3.4364   25.4200 C   0  0  0  0  0  0  0  0  0  0  0  0
    9.7853   -1.1840   24.4927 C   0  0  0  0  0  0  0  0  0  0  0  0
    5.0276   -8.5227   17.5352 C   0  0  0  0  0  0  0  0  0  0  0  0
    9.8187   -2.0895   25.5800 C   0  0  0  0  0  0  0  0  0  0  0  0
    5.6473   -8.7216   15.3158 C   0  0  0  0  0  0  0  0  0  0  0  0
   10.7581   -3.1233   19.4720 N   0  0  0  0  0  0  0  0  0  0  0  0
    9.9571   -4.0573   16.8866 C   0  0  0  0  0  0  0  0  0  0  0  0
    7.6213   -6.5618   16.0087 C   0  0  0  0  0  0  0  0  0  0  0  0
   10.8583   -2.6527   20.7222 C   0  0  0  0  0  0  0  0  0  0  0  0
   10.6412   -3.5089   21.7936 C   0  0  0  0  0  0  0  0  0  0  0  0
   10.4972   -3.8968   24.1589 C   0  0  0  0  0  0  0  0  0  0  0  0
    5.9260   -8.2736   16.5517 C   0  0  0  0  0  0  0  0  0  0  0  0
    3.8816   -9.1166   17.2493 C   0  0  0  0  0  0  0  0  0  0  0  0
   10.1297   -1.6575   23.2324 C   0  0  0  0  0  0  0  0  0  0  0  0
    9.4684   -1.6929   26.7263 F   0  0  0  0  0  0  0  0  0  0  0  0
    7.7963   -7.7906   17.9837 C   0  0  0  0  0  0  0  0  0  0  0  0
   10.5884   -3.0725   16.7902 O   0  0  0  0  0  0  0  0  0  0  0  0
   10.4323   -5.3494   20.3516 C   0  0  0  0  0  0  0  0  0  0  0  0
    7.1156   -7.5454   16.8218 C   0  0  0  0  0  0  0  0  0  0  0  0
   10.3885   -4.4388   19.2773 C   0  0  0  0  0  0  0  0  0  0  0  0
    4.5160   -9.3822   15.0841 C   0  0  0  0  0  0  0  0  0  0  0  0
  1  3  4  0
  1 24  4  0
  2  6  4  0
  2 15  4  0
  3  5  4  0
  3  6  4  0
  4 21  4  0
  4 29  4  0
  5 15  4  0
  5 28  1  0
  6 16  4  0
  7 18  4  0
  7 26  4  0
  8 18  1  0
  8 19  4  0
  8 22  4  0
  9 12  4  0
  9 19  4  0
 10 12  4  0
 10 22  4  0
 11 20  4  0
 11 21  4  0
 12 23  1  0
 13 20  4  0
 13 29  4  0
 14 17  4  0
 14 28  4  0
 15 25  2  0
 16 27  4  0
 17 18  4  0
 20 27  1  0
 24 27  4  0
 26 28  4  0
M  END
$$$$

 Created by Python create_sdf_string function

 29 33  0  0  0  0  0  0  0  0999 V2000
    8.8270   -7.0288   18.4251 C   0  0  0  0  0  0  0  0  0  0  0  0
    9.1576   -4.6236   15.8860 O   0  0  0  0  0  0  0  0  0  0  0  0
    9.1509   -5.9108   17.7177 C   0  0  0  0  0  0  0  0  0  0  0  0
    3.6373   -9.5349   16.0582 N   0  0  0  0  0  0  0  0  0  0  0  0
    9.9275   -4.8001   18.0438 N   0  0  0  0  0  0  0  0  0  0  0  0
    8.5908   -5.7425   16.4412 C   0  0  0  0  0  0  0  0  0  0  0  0
   10.5993   -4.8981   21.6068 C   0  0  0  0  0  0  0  0  0  0  0  0
   10.4258   -3.0106   23.0998 C   0  0  0  0  0  0  0  0  0  0  0  0
   10.2148   -3.4364   25.4200 C   0  0  0  0  0  0  0  0  0  0  0  0
    9.7853   -1.1840   24.4927 C   0  0  0  0  0  0  0  0  0  0  0  0
    5.0276   -8.5227   17.5352 C   0  0  0  0  0  0  0  0  0  0  0  0
    9.8187   -2.0895   25.5800 C   0  0  0  0  0  0  0  0  0  0  0  0
    5.6473   -8.7216   15.3158 C   0  0  0  0  0  0  0  0  0  0  0  0
   10.7581   -3.1233   19.4720 N   0  0  0  0  0  0  0  0  0  0  0  0
    9.9571   -4.0573   16.8866 C   0  0  0  0  0  0  0  0  0  0  0  0
    7.6213   -6.5618   16.0087 C   0  0  0  0  0  0  0  0  0  0  0  0
   10.8583   -2.6527   20.7222 C   0  0  0  0  0  0  0  0  0  0  0  0
   10.6412   -3.5089   21.7936 C   0  0  0  0  0  0  0  0  0  0  0  0
   10.4972   -3.8968   24.1589 C   0  0  0  0  0  0  0  0  0  0  0  0
    5.9260   -8.2736   16.5517 C   0  0  0  0  0  0  0  0  0  0  0  0
    3.8816   -9.1166   17.2493 C   0  0  0  0  0  0  0  0  0  0  0  0
   10.1297   -1.6575   23.2324 C   0  0  0  0  0  0  0  0  0  0  0  0
    9.4684   -1.6929   26.7263 F   0  0  0  0  0  0  0  0  0  0  0  0
    7.7963   -7.7906   17.9837 C   0  0  0  0  0  0  0  0  0  0  0  0
   10.5884   -3.0725   16.7902 O   0  0  0  0  0  0  0  0  0  0  0  0
   10.4323   -5.3494   20.3516 C   0  0  0  0  0  0  0  0  0  0  0  0
    7.1156   -7.5454   16.8218 C   0  0  0  0  0  0  0  0  0  0  0  0
   10.3885   -4.4388   19.2773 C   0  0  0  0  0  0  0  0  0  0  0  0
    4.5160   -9.3822   15.0841 C   0  0  0  0  0  0  0  0  0  0  0  0
  1  3  4  0
  1 24  4  0
  2  6  4  0
  2 15  4  0
  3  5  4  0
  3  6  4  0
  4 21  4  0
  4 29  4  0
  5 15  4  0
  5 28  1  0
  6 16  4  0
  7 18  4  0
  7 26  4  0
  8 18  1  0
  8 19  4  0
  8 22  4  0
  9 12  4  0
  9 19  4  0
 10 12  4  0
 10 22  4  0
 11 20  4  0
 11 21  4  0
 12 23  1  0
 13 20  4  0
 13 29  4  0
 14 17  4  0
 14 28  4  0
 15 25  2  0
 16 27  4  0
 17 18  4  0
 20 27  1  0
 24 27  4  0
 26 28  4  0
M  END
$$$$

 Created by Python create_sdf_string function

 29 33  0  0  0  0  0  0  0  0999 V2000
    8.8270   -7.0288   18.4251 C   0  0  0  0  0  0  0  0  0  0  0  0
    9.1576   -4.6236   15.8860 O   0  0  0  0  0  0  0  0  0  0  0  0
    9.1509   -5.9108   17.7177 C   0  0  0  0  0  0  0  0  0  0  0  0
    3.6373   -9.5349   16.0582 N   0  0  0  0  0  0  0  0  0  0  0  0
    9.9275   -4.8001   18.0438 N   0  0  0  0  0  0  0  0  0  0  0  0
    8.5908   -5.7425   16.4412 C   0  0  0  0  0  0  0  0  0  0  0  0
   10.5993   -4.8981   21.6068 C   0  0  0  0  0  0  0  0  0  0  0  0
   10.4258   -3.0106   23.0998 C   0  0  0  0  0  0  0  0  0  0  0  0
   10.2148   -3.4364   25.4200 C   0  0  0  0  0  0  0  0  0  0  0  0
    9.7853   -1.1840   24.4927 C   0  0  0  0  0  0  0  0  0  0  0  0
    5.0276   -8.5227   17.5352 C   0  0  0  0  0  0  0  0  0  0  0  0
    9.8187   -2.0895   25.5800 C   0  0  0  0  0  0  0  0  0  0  0  0
    5.6473   -8.7216   15.3158 C   0  0  0  0  0  0  0  0  0  0  0  0
   10.7581   -3.1233   19.4720 N   0  0  0  0  0  0  0  0  0  0  0  0
    9.9571   -4.0573   16.8866 C   0  0  0  0  0  0  0  0  0  0  0  0
    7.6213   -6.5618   16.0087 C   0  0  0  0  0  0  0  0  0  0  0  0
   10.8583   -2.6527   20.7222 C   0  0  0  0  0  0  0  0  0  0  0  0
   10.6412   -3.5089   21.7936 C   0  0  0  0  0  0  0  0  0  0  0  0
   10.4972   -3.8968   24.1589 C   0  0  0  0  0  0  0  0  0  0  0  0
    5.9260   -8.2736   16.5517 C   0  0  0  0  0  0  0  0  0  0  0  0
    3.8816   -9.1166   17.2493 C   0  0  0  0  0  0  0  0  0  0  0  0
   10.1297   -1.6575   23.2324 C   0  0  0  0  0  0  0  0  0  0  0  0
    9.4684   -1.6929   26.7263 F   0  0  0  0  0  0  0  0  0  0  0  0
    7.7963   -7.7906   17.9837 C   0  0  0  0  0  0  0  0  0  0  0  0
   10.5884   -3.0725   16.7902 O   0  0  0  0  0  0  0  0  0  0  0  0
   10.4323   -5.3494   20.3516 C   0  0  0  0  0  0  0  0  0  0  0  0
    7.1156   -7.5454   16.8218 C   0  0  0  0  0  0  0  0  0  0  0  0
   10.3885   -4.4388   19.2773 C   0  0  0  0  0  0  0  0  0  0  0  0
    4.5160   -9.3822   15.0841 C   0  0  0  0  0  0  0  0  0  0  0  0
  1  3  4  0
  1 24  4  0
  2  6  4  0
  2 15  4  0
  3  5  4  0
  3  6  4  0
  4 21  4  0
  4 29  4  0
  5 15  4  0
  5 28  1  0
  6 16  4  0
  7 18  4  0
  7 26  4  0
  8 18  1  0
  8 19  4  0
  8 22  4  0
  9 12  4  0
  9 19  4  0
 10 12  4  0
 10 22  4  0
 11 20  4  0
 11 21  4  0
 12 23  1  0
 13 20  4  0
 13 29  4  0
 14 17  4  0
 14 28  4  0
 15 25  2  0
 16 27  4  0
 17 18  4  0
 20 27  1  0
 24 27  4  0
 26 28  4  0
M  END
$$$$

 Created by Python create_sdf_string function

 29 33  0  0  0  0  0  0  0  0999 V2000
    8.8270   -7.0288   18.4251 C   0  0  0  0  0  0  0  0  0  0  0  0
    9.1576   -4.6236   15.8860 O   0  0  0  0  0  0  0  0  0  0  0  0
    9.1509   -5.9108   17.7177 C   0  0  0  0  0  0  0  0  0  0  0  0
    3.6373   -9.5349   16.0582 N   0  0  0  0  0  0  0  0  0  0  0  0
    9.9275   -4.8001   18.0438 N   0  0  0  0  0  0  0  0  0  0  0  0
    8.5908   -5.7425   16.4412 C   0  0  0  0  0  0  0  0  0  0  0  0
   10.5993   -4.8981   21.6068 C   0  0  0  0  0  0  0  0  0  0  0  0
   10.4258   -3.0106   23.0998 C   0  0  0  0  0  0  0  0  0  0  0  0
   10.2148   -3.4364   25.4200 C   0  0  0  0  0  0  0  0  0  0  0  0
    9.7853   -1.1840   24.4927 C   0  0  0  0  0  0  0  0  0  0  0  0
    5.0276   -8.5227   17.5352 C   0  0  0  0  0  0  0  0  0  0  0  0
    9.8187   -2.0895   25.5800 C   0  0  0  0  0  0  0  0  0  0  0  0
    5.6473   -8.7216   15.3158 C   0  0  0  0  0  0  0  0  0  0  0  0
   10.7581   -3.1233   19.4720 N   0  0  0  0  0  0  0  0  0  0  0  0
    9.9571   -4.0573   16.8866 C   0  0  0  0  0  0  0  0  0  0  0  0
    7.6213   -6.5618   16.0087 C   0  0  0  0  0  0  0  0  0  0  0  0
   10.8583   -2.6527   20.7222 C   0  0  0  0  0  0  0  0  0  0  0  0
   10.6412   -3.5089   21.7936 C   0  0  0  0  0  0  0  0  0  0  0  0
   10.4972   -3.8968   24.1589 C   0  0  0  0  0  0  0  0  0  0  0  0
    5.9260   -8.2736   16.5517 C   0  0  0  0  0  0  0  0  0  0  0  0
    3.8816   -9.1166   17.2493 C   0  0  0  0  0  0  0  0  0  0  0  0
   10.1297   -1.6575   23.2324 C   0  0  0  0  0  0  0  0  0  0  0  0
    9.4684   -1.6929   26.7263 F   0  0  0  0  0  0  0  0  0  0  0  0
    7.7963   -7.7906   17.9837 C   0  0  0  0  0  0  0  0  0  0  0  0
   10.5884   -3.0725   16.7902 O   0  0  0  0  0  0  0  0  0  0  0  0
   10.4323   -5.3494   20.3516 C   0  0  0  0  0  0  0  0  0  0  0  0
    7.1156   -7.5454   16.8218 C   0  0  0  0  0  0  0  0  0  0  0  0
   10.3885   -4.4388   19.2773 C   0  0  0  0  0  0  0  0  0  0  0  0
    4.5160   -9.3822   15.0841 C   0  0  0  0  0  0  0  0  0  0  0  0
  1  3  4  0
  1 24  4  0
  2  6  4  0
  2 15  4  0
  3  5  4  0
  3  6  4  0
  4 21  4  0
  4 29  4  0
  5 15  4  0
  5 28  1  0
  6 16  4  0
  7 18  4  0
  7 26  4  0
  8 18  1  0
  8 19  4  0
  8 22  4  0
  9 12  4  0
  9 19  4  0
 10 12  4  0
 10 22  4  0
 11 20  4  0
 11 21  4  0
 12 23  1  0
 13 20  4  0
 13 29  4  0
 14 17  4  0
 14 28  4  0
 15 25  2  0
 16 27  4  0
 17 18  4  0
 20 27  1  0
 24 27  4  0
 26 28  4  0
M  END
$$$$

 Created by Python create_sdf_string function

 29 33  0  0  0  0  0  0  0  0999 V2000
    8.8270   -7.0288   18.4251 C   0  0  0  0  0  0  0  0  0  0  0  0
    9.1576   -4.6236   15.8860 O   0  0  0  0  0  0  0  0  0  0  0  0
    9.1509   -5.9108   17.7177 C   0  0  0  0  0  0  0  0  0  0  0  0
    3.6373   -9.5349   16.0582 N   0  0  0  0  0  0  0  0  0  0  0  0
    9.9275   -4.8001   18.0438 N   0  0  0  0  0  0  0  0  0  0  0  0
    8.5908   -5.7425   16.4412 C   0  0  0  0  0  0  0  0  0  0  0  0
   10.5993   -4.8981   21.6068 C   0  0  0  0  0  0  0  0  0  0  0  0
   10.4258   -3.0106   23.0998 C   0  0  0  0  0  0  0  0  0  0  0  0
   10.2148   -3.4364   25.4200 C   0  0  0  0  0  0  0  0  0  0  0  0
    9.7853   -1.1840   24.4927 C   0  0  0  0  0  0  0  0  0  0  0  0
    5.0276   -8.5227   17.5352 C   0  0  0  0  0  0  0  0  0  0  0  0
    9.8187   -2.0895   25.5800 C   0  0  0  0  0  0  0  0  0  0  0  0
    5.6473   -8.7216   15.3158 C   0  0  0  0  0  0  0  0  0  0  0  0
   10.7581   -3.1233   19.4720 N   0  0  0  0  0  0  0  0  0  0  0  0
    9.9571   -4.0573   16.8866 C   0  0  0  0  0  0  0  0  0  0  0  0
    7.6213   -6.5618   16.0087 C   0  0  0  0  0  0  0  0  0  0  0  0
   10.8583   -2.6527   20.7222 C   0  0  0  0  0  0  0  0  0  0  0  0
   10.6412   -3.5089   21.7936 C   0  0  0  0  0  0  0  0  0  0  0  0
   10.4972   -3.8968   24.1589 C   0  0  0  0  0  0  0  0  0  0  0  0
    5.9260   -8.2736   16.5517 C   0  0  0  0  0  0  0  0  0  0  0  0
    3.8816   -9.1166   17.2493 C   0  0  0  0  0  0  0  0  0  0  0  0
   10.1297   -1.6575   23.2324 C   0  0  0  0  0  0  0  0  0  0  0  0
    9.4684   -1.6929   26.7263 F   0  0  0  0  0  0  0  0  0  0  0  0
    7.7963   -7.7906   17.9837 C   0  0  0  0  0  0  0  0  0  0  0  0
   10.5884   -3.0725   16.7902 O   0  0  0  0  0  0  0  0  0  0  0  0
   10.4323   -5.3494   20.3516 C   0  0  0  0  0  0  0  0  0  0  0  0
    7.1156   -7.5454   16.8218 C   0  0  0  0  0  0  0  0  0  0  0  0
   10.3885   -4.4388   19.2773 C   0  0  0  0  0  0  0  0  0  0  0  0
    4.5160   -9.3822   15.0841 C   0  0  0  0  0  0  0  0  0  0  0  0
  1  3  4  0
  1 24  4  0
  2  6  4  0
  2 15  4  0
  3  5  4  0
  3  6  4  0
  4 21  4  0
  4 29  4  0
  5 15  4  0
  5 28  1  0
  6 16  4  0
  7 18  4  0
  7 26  4  0
  8 18  1  0
  8 19  4  0
  8 22  4  0
  9 12  4  0
  9 19  4  0
 10 12  4  0
 10 22  4  0
 11 20  4  0
 11 21  4  0
 12 23  1  0
 13 20  4  0
 13 29  4  0
 14 17  4  0
 14 28  4  0
 15 25  2  0
 16 27  4  0
 17 18  4  0
 20 27  1  0
 24 27  4  0
 26 28  4  0
M  END
$$$$

 Created by Python create_sdf_string function

 29 33  0  0  0  0  0  0  0  0999 V2000
    8.8270   -7.0288   18.4251 C   0  0  0  0  0  0  0  0  0  0  0  0
    9.1576   -4.6236   15.8860 O   0  0  0  0  0  0  0  0  0  0  0  0
    9.1509   -5.9108   17.7177 C   0  0  0  0  0  0  0  0  0  0  0  0
    3.6373   -9.5349   16.0582 N   0  0  0  0  0  0  0  0  0  0  0  0
    9.9275   -4.8001   18.0438 N   0  0  0  0  0  0  0  0  0  0  0  0
    8.5908   -5.7425   16.4412 C   0  0  0  0  0  0  0  0  0  0  0  0
   10.5993   -4.8981   21.6068 C   0  0  0  0  0  0  0  0  0  0  0  0
   10.4258   -3.0106   23.0998 C   0  0  0  0  0  0  0  0  0  0  0  0
   10.2148   -3.4364   25.4200 C   0  0  0  0  0  0  0  0  0  0  0  0
    9.7853   -1.1840   24.4927 C   0  0  0  0  0  0  0  0  0  0  0  0
    5.0276   -8.5227   17.5352 C   0  0  0  0  0  0  0  0  0  0  0  0
    9.8187   -2.0895   25.5800 C   0  0  0  0  0  0  0  0  0  0  0  0
    5.6473   -8.7216   15.3158 C   0  0  0  0  0  0  0  0  0  0  0  0
   10.7581   -3.1233   19.4720 N   0  0  0  0  0  0  0  0  0  0  0  0
    9.9571   -4.0573   16.8866 C   0  0  0  0  0  0  0  0  0  0  0  0
    7.6213   -6.5618   16.0087 C   0  0  0  0  0  0  0  0  0  0  0  0
   10.8583   -2.6527   20.7222 C   0  0  0  0  0  0  0  0  0  0  0  0
   10.6412   -3.5089   21.7936 C   0  0  0  0  0  0  0  0  0  0  0  0
   10.4972   -3.8968   24.1589 C   0  0  0  0  0  0  0  0  0  0  0  0
    5.9260   -8.2736   16.5517 C   0  0  0  0  0  0  0  0  0  0  0  0
    3.8816   -9.1166   17.2493 C   0  0  0  0  0  0  0  0  0  0  0  0
   10.1297   -1.6575   23.2324 C   0  0  0  0  0  0  0  0  0  0  0  0
    9.4684   -1.6929   26.7263 F   0  0  0  0  0  0  0  0  0  0  0  0
    7.7963   -7.7906   17.9837 C   0  0  0  0  0  0  0  0  0  0  0  0
   10.5884   -3.0725   16.7902 O   0  0  0  0  0  0  0  0  0  0  0  0
   10.4323   -5.3494   20.3516 C   0  0  0  0  0  0  0  0  0  0  0  0
    7.1156   -7.5454   16.8218 C   0  0  0  0  0  0  0  0  0  0  0  0
   10.3885   -4.4388   19.2773 C   0  0  0  0  0  0  0  0  0  0  0  0
    4.5160   -9.3822   15.0841 C   0  0  0  0  0  0  0  0  0  0  0  0
  1  3  4  0
  1 24  4  0
  2  6  4  0
  2 15  4  0
  3  5  4  0
  3  6  4  0
  4 21  4  0
  4 29  4  0
  5 15  4  0
  5 28  1  0
  6 16  4  0
  7 18  4  0
  7 26  4  0
  8 18  1  0
  8 19  4  0
  8 22  4  0
  9 12  4  0
  9 19  4  0
 10 12  4  0
 10 22  4  0
 11 20  4  0
 11 21  4  0
 12 23  1  0
 13 20  4  0
 13 29  4  0
 14 17  4  0
 14 28  4  0
 15 25  2  0
 16 27  4  0
 17 18  4  0
 20 27  1  0
 24 27  4  0
 26 28  4  0
M  END
$$$$

 Created by Python create_sdf_string function

 29 33  0  0  0  0  0  0  0  0999 V2000
    8.8270   -7.0288   18.4251 C   0  0  0  0  0  0  0  0  0  0  0  0
    9.1576   -4.6236   15.8860 O   0  0  0  0  0  0  0  0  0  0  0  0
    9.1509   -5.9108   17.7177 C   0  0  0  0  0  0  0  0  0  0  0  0
    3.6373   -9.5349   16.0582 N   0  0  0  0  0  0  0  0  0  0  0  0
    9.9275   -4.8001   18.0438 N   0  0  0  0  0  0  0  0  0  0  0  0
    8.5908   -5.7425   16.4412 C   0  0  0  0  0  0  0  0  0  0  0  0
   10.5993   -4.8981   21.6068 C   0  0  0  0  0  0  0  0  0  0  0  0
   10.4258   -3.0106   23.0998 C   0  0  0  0  0  0  0  0  0  0  0  0
   10.2148   -3.4364   25.4200 C   0  0  0  0  0  0  0  0  0  0  0  0
    9.7853   -1.1840   24.4927 C   0  0  0  0  0  0  0  0  0  0  0  0
    5.0276   -8.5227   17.5352 C   0  0  0  0  0  0  0  0  0  0  0  0
    9.8187   -2.0895   25.5800 C   0  0  0  0  0  0  0  0  0  0  0  0
    5.6473   -8.7216   15.3158 C   0  0  0  0  0  0  0  0  0  0  0  0
   10.7581   -3.1233   19.4720 N   0  0  0  0  0  0  0  0  0  0  0  0
    9.9571   -4.0573   16.8866 C   0  0  0  0  0  0  0  0  0  0  0  0
    7.6213   -6.5618   16.0087 C   0  0  0  0  0  0  0  0  0  0  0  0
   10.8583   -2.6527   20.7222 C   0  0  0  0  0  0  0  0  0  0  0  0
   10.6412   -3.5089   21.7936 C   0  0  0  0  0  0  0  0  0  0  0  0
   10.4972   -3.8968   24.1589 C   0  0  0  0  0  0  0  0  0  0  0  0
    5.9260   -8.2736   16.5517 C   0  0  0  0  0  0  0  0  0  0  0  0
    3.8816   -9.1166   17.2493 C   0  0  0  0  0  0  0  0  0  0  0  0
   10.1297   -1.6575   23.2324 C   0  0  0  0  0  0  0  0  0  0  0  0
    9.4684   -1.6929   26.7263 F   0  0  0  0  0  0  0  0  0  0  0  0
    7.7963   -7.7906   17.9837 C   0  0  0  0  0  0  0  0  0  0  0  0
   10.5884   -3.0725   16.7902 O   0  0  0  0  0  0  0  0  0  0  0  0
   10.4323   -5.3494   20.3516 C   0  0  0  0  0  0  0  0  0  0  0  0
    7.1156   -7.5454   16.8218 C   0  0  0  0  0  0  0  0  0  0  0  0
   10.3885   -4.4388   19.2773 C   0  0  0  0  0  0  0  0  0  0  0  0
    4.5160   -9.3822   15.0841 C   0  0  0  0  0  0  0  0  0  0  0  0
  1  3  4  0
  1 24  4  0
  2  6  4  0
  2 15  4  0
  3  5  4  0
  3  6  4  0
  4 21  4  0
  4 29  4  0
  5 15  4  0
  5 28  1  0
  6 16  4  0
  7 18  4  0
  7 26  4  0
  8 18  1  0
  8 19  4  0
  8 22  4  0
  9 12  4  0
  9 19  4  0
 10 12  4  0
 10 22  4  0
 11 20  4  0
 11 21  4  0
 12 23  1  0
 13 20  4  0
 13 29  4  0
 14 17  4  0
 14 28  4  0
 15 25  2  0
 16 27  4  0
 17 18  4  0
 20 27  1  0
 24 27  4  0
 26 28  4  0
M  END
$$$$

 Created by Python create_sdf_string function

 29 33  0  0  0  0  0  0  0  0999 V2000
    8.8270   -7.0288   18.4251 C   0  0  0  0  0  0  0  0  0  0  0  0
    9.1576   -4.6236   15.8860 O   0  0  0  0  0  0  0  0  0  0  0  0
    9.1509   -5.9108   17.7177 C   0  0  0  0  0  0  0  0  0  0  0  0
    3.6373   -9.5349   16.0582 N   0  0  0  0  0  0  0  0  0  0  0  0
    9.9275   -4.8001   18.0438 N   0  0  0  0  0  0  0  0  0  0  0  0
    8.5908   -5.7425   16.4412 C   0  0  0  0  0  0  0  0  0  0  0  0
   10.5993   -4.8981   21.6068 C   0  0  0  0  0  0  0  0  0  0  0  0
   10.4258   -3.0106   23.0998 C   0  0  0  0  0  0  0  0  0  0  0  0
   10.2148   -3.4364   25.4200 C   0  0  0  0  0  0  0  0  0  0  0  0
    9.7853   -1.1840   24.4927 C   0  0  0  0  0  0  0  0  0  0  0  0
    5.0276   -8.5227   17.5352 C   0  0  0  0  0  0  0  0  0  0  0  0
    9.8187   -2.0895   25.5800 C   0  0  0  0  0  0  0  0  0  0  0  0
    5.6473   -8.7216   15.3158 C   0  0  0  0  0  0  0  0  0  0  0  0
   10.7581   -3.1233   19.4720 N   0  0  0  0  0  0  0  0  0  0  0  0
    9.9571   -4.0573   16.8866 C   0  0  0  0  0  0  0  0  0  0  0  0
    7.6213   -6.5618   16.0087 C   0  0  0  0  0  0  0  0  0  0  0  0
   10.8583   -2.6527   20.7222 C   0  0  0  0  0  0  0  0  0  0  0  0
   10.6412   -3.5089   21.7936 C   0  0  0  0  0  0  0  0  0  0  0  0
   10.4972   -3.8968   24.1589 C   0  0  0  0  0  0  0  0  0  0  0  0
    5.9260   -8.2736   16.5517 C   0  0  0  0  0  0  0  0  0  0  0  0
    3.8816   -9.1166   17.2493 C   0  0  0  0  0  0  0  0  0  0  0  0
   10.1297   -1.6575   23.2324 C   0  0  0  0  0  0  0  0  0  0  0  0
    9.4684   -1.6929   26.7263 F   0  0  0  0  0  0  0  0  0  0  0  0
    7.7963   -7.7906   17.9837 C   0  0  0  0  0  0  0  0  0  0  0  0
   10.5884   -3.0725   16.7902 O   0  0  0  0  0  0  0  0  0  0  0  0
   10.4323   -5.3494   20.3516 C   0  0  0  0  0  0  0  0  0  0  0  0
    7.1156   -7.5454   16.8218 C   0  0  0  0  0  0  0  0  0  0  0  0
   10.3885   -4.4388   19.2773 C   0  0  0  0  0  0  0  0  0  0  0  0
    4.5160   -9.3822   15.0841 C   0  0  0  0  0  0  0  0  0  0  0  0
  1  3  4  0
  1 24  4  0
  2  6  4  0
  2 15  4  0
  3  5  4  0
  3  6  4  0
  4 21  4  0
  4 29  4  0
  5 15  4  0
  5 28  1  0
  6 16  4  0
  7 18  4  0
  7 26  4  0
  8 18  1  0
  8 19  4  0
  8 22  4  0
  9 12  4  0
  9 19  4  0
 10 12  4  0
 10 22  4  0
 11 20  4  0
 11 21  4  0
 12 23  1  0
 13 20  4  0
 13 29  4  0
 14 17  4  0
 14 28  4  0
 15 25  2  0
 16 27  4  0
 17 18  4  0
 20 27  1  0
 24 27  4  0
 26 28  4  0
M  END
$$$$

 Created by Python create_sdf_string function

 29 33  0  0  0  0  0  0  0  0999 V2000
    8.8270   -7.0288   18.4251 C   0  0  0  0  0  0  0  0  0  0  0  0
    9.1576   -4.6236   15.8860 O   0  0  0  0  0  0  0  0  0  0  0  0
    9.1509   -5.9108   17.7177 C   0  0  0  0  0  0  0  0  0  0  0  0
    3.6373   -9.5349   16.0582 N   0  0  0  0  0  0  0  0  0  0  0  0
    9.9275   -4.8001   18.0438 N   0  0  0  0  0  0  0  0  0  0  0  0
    8.5908   -5.7425   16.4412 C   0  0  0  0  0  0  0  0  0  0  0  0
   10.5993   -4.8981   21.6068 C   0  0  0  0  0  0  0  0  0  0  0  0
   10.4258   -3.0106   23.0998 C   0  0  0  0  0  0  0  0  0  0  0  0
   10.2148   -3.4364   25.4200 C   0  0  0  0  0  0  0  0  0  0  0  0
    9.7853   -1.1840   24.4927 C   0  0  0  0  0  0  0  0  0  0  0  0
    5.0276   -8.5227   17.5352 C   0  0  0  0  0  0  0  0  0  0  0  0
    9.8187   -2.0895   25.5800 C   0  0  0  0  0  0  0  0  0  0  0  0
    5.6473   -8.7216   15.3158 C   0  0  0  0  0  0  0  0  0  0  0  0
   10.7581   -3.1233   19.4720 N   0  0  0  0  0  0  0  0  0  0  0  0
    9.9571   -4.0573   16.8866 C   0  0  0  0  0  0  0  0  0  0  0  0
    7.6213   -6.5618   16.0087 C   0  0  0  0  0  0  0  0  0  0  0  0
   10.8583   -2.6527   20.7222 C   0  0  0  0  0  0  0  0  0  0  0  0
   10.6412   -3.5089   21.7936 C   0  0  0  0  0  0  0  0  0  0  0  0
   10.4972   -3.8968   24.1589 C   0  0  0  0  0  0  0  0  0  0  0  0
    5.9260   -8.2736   16.5517 C   0  0  0  0  0  0  0  0  0  0  0  0
    3.8816   -9.1166   17.2493 C   0  0  0  0  0  0  0  0  0  0  0  0
   10.1297   -1.6575   23.2324 C   0  0  0  0  0  0  0  0  0  0  0  0
    9.4684   -1.6929   26.7263 F   0  0  0  0  0  0  0  0  0  0  0  0
    7.7963   -7.7906   17.9837 C   0  0  0  0  0  0  0  0  0  0  0  0
   10.5884   -3.0725   16.7902 O   0  0  0  0  0  0  0  0  0  0  0  0
   10.4323   -5.3494   20.3516 C   0  0  0  0  0  0  0  0  0  0  0  0
    7.1156   -7.5454   16.8218 C   0  0  0  0  0  0  0  0  0  0  0  0
   10.3885   -4.4388   19.2773 C   0  0  0  0  0  0  0  0  0  0  0  0
    4.5160   -9.3822   15.0841 C   0  0  0  0  0  0  0  0  0  0  0  0
  1  3  4  0
  1 24  4  0
  2  6  4  0
  2 15  4  0
  3  5  4  0
  3  6  4  0
  4 21  4  0
  4 29  4  0
  5 15  4  0
  5 28  1  0
  6 16  4  0
  7 18  4  0
  7 26  4  0
  8 18  1  0
  8 19  4  0
  8 22  4  0
  9 12  4  0
  9 19  4  0
 10 12  4  0
 10 22  4  0
 11 20  4  0
 11 21  4  0
 12 23  1  0
 13 20  4  0
 13 29  4  0
 14 17  4  0
 14 28  4  0
 15 25  2  0
 16 27  4  0
 17 18  4  0
 20 27  1  0
 24 27  4  0
 26 28  4  0
M  END
$$$$

 Created by Python create_sdf_string function

 29 33  0  0  0  0  0  0  0  0999 V2000
    8.8270   -7.0288   18.4251 C   0  0  0  0  0  0  0  0  0  0  0  0
    9.1576   -4.6236   15.8860 O   0  0  0  0  0  0  0  0  0  0  0  0
    9.1509   -5.9108   17.7177 C   0  0  0  0  0  0  0  0  0  0  0  0
    3.6373   -9.5349   16.0582 N   0  0  0  0  0  0  0  0  0  0  0  0
    9.9275   -4.8001   18.0438 N   0  0  0  0  0  0  0  0  0  0  0  0
    8.5908   -5.7425   16.4412 C   0  0  0  0  0  0  0  0  0  0  0  0
   10.5993   -4.8981   21.6068 C   0  0  0  0  0  0  0  0  0  0  0  0
   10.4258   -3.0106   23.0998 C   0  0  0  0  0  0  0  0  0  0  0  0
   10.2148   -3.4364   25.4200 C   0  0  0  0  0  0  0  0  0  0  0  0
    9.7853   -1.1840   24.4927 C   0  0  0  0  0  0  0  0  0  0  0  0
    5.0276   -8.5227   17.5352 C   0  0  0  0  0  0  0  0  0  0  0  0
    9.8187   -2.0895   25.5800 C   0  0  0  0  0  0  0  0  0  0  0  0
    5.6473   -8.7216   15.3158 C   0  0  0  0  0  0  0  0  0  0  0  0
   10.7581   -3.1233   19.4720 N   0  0  0  0  0  0  0  0  0  0  0  0
    9.9571   -4.0573   16.8866 C   0  0  0  0  0  0  0  0  0  0  0  0
    7.6213   -6.5618   16.0087 C   0  0  0  0  0  0  0  0  0  0  0  0
   10.8583   -2.6527   20.7222 C   0  0  0  0  0  0  0  0  0  0  0  0
   10.6412   -3.5089   21.7936 C   0  0  0  0  0  0  0  0  0  0  0  0
   10.4972   -3.8968   24.1589 C   0  0  0  0  0  0  0  0  0  0  0  0
    5.9260   -8.2736   16.5517 C   0  0  0  0  0  0  0  0  0  0  0  0
    3.8816   -9.1166   17.2493 C   0  0  0  0  0  0  0  0  0  0  0  0
   10.1297   -1.6575   23.2324 C   0  0  0  0  0  0  0  0  0  0  0  0
    9.4684   -1.6929   26.7263 F   0  0  0  0  0  0  0  0  0  0  0  0
    7.7963   -7.7906   17.9837 C   0  0  0  0  0  0  0  0  0  0  0  0
   10.5884   -3.0725   16.7902 O   0  0  0  0  0  0  0  0  0  0  0  0
   10.4323   -5.3494   20.3516 C   0  0  0  0  0  0  0  0  0  0  0  0
    7.1156   -7.5454   16.8218 C   0  0  0  0  0  0  0  0  0  0  0  0
   10.3885   -4.4388   19.2773 C   0  0  0  0  0  0  0  0  0  0  0  0
    4.5160   -9.3822   15.0841 C   0  0  0  0  0  0  0  0  0  0  0  0
  1  3  4  0
  1 24  4  0
  2  6  4  0
  2 15  4  0
  3  5  4  0
  3  6  4  0
  4 21  4  0
  4 29  4  0
  5 15  4  0
  5 28  1  0
  6 16  4  0
  7 18  4  0
  7 26  4  0
  8 18  1  0
  8 19  4  0
  8 22  4  0
  9 12  4  0
  9 19  4  0
 10 12  4  0
 10 22  4  0
 11 20  4  0
 11 21  4  0
 12 23  1  0
 13 20  4  0
 13 29  4  0
 14 17  4  0
 14 28  4  0
 15 25  2  0
 16 27  4  0
 17 18  4  0
 20 27  1  0
 24 27  4  0
 26 28  4  0
M  END
$$$$

 Created by Python create_sdf_string function

 29 33  0  0  0  0  0  0  0  0999 V2000
    8.8270   -7.0288   18.4251 C   0  0  0  0  0  0  0  0  0  0  0  0
    9.1576   -4.6236   15.8860 O   0  0  0  0  0  0  0  0  0  0  0  0
    9.1509   -5.9108   17.7177 C   0  0  0  0  0  0  0  0  0  0  0  0
    3.6373   -9.5349   16.0582 N   0  0  0  0  0  0  0  0  0  0  0  0
    9.9275   -4.8001   18.0438 N   0  0  0  0  0  0  0  0  0  0  0  0
    8.5908   -5.7425   16.4412 C   0  0  0  0  0  0  0  0  0  0  0  0
   10.5993   -4.8981   21.6068 C   0  0  0  0  0  0  0  0  0  0  0  0
   10.4258   -3.0106   23.0998 C   0  0  0  0  0  0  0  0  0  0  0  0
   10.2148   -3.4364   25.4200 C   0  0  0  0  0  0  0  0  0  0  0  0
    9.7853   -1.1840   24.4927 C   0  0  0  0  0  0  0  0  0  0  0  0
    5.0276   -8.5227   17.5352 C   0  0  0  0  0  0  0  0  0  0  0  0
    9.8187   -2.0895   25.5800 C   0  0  0  0  0  0  0  0  0  0  0  0
    5.6473   -8.7216   15.3158 C   0  0  0  0  0  0  0  0  0  0  0  0
   10.7581   -3.1233   19.4720 N   0  0  0  0  0  0  0  0  0  0  0  0
    9.9571   -4.0573   16.8866 C   0  0  0  0  0  0  0  0  0  0  0  0
    7.6213   -6.5618   16.0087 C   0  0  0  0  0  0  0  0  0  0  0  0
   10.8583   -2.6527   20.7222 C   0  0  0  0  0  0  0  0  0  0  0  0
   10.6412   -3.5089   21.7936 C   0  0  0  0  0  0  0  0  0  0  0  0
   10.4972   -3.8968   24.1589 C   0  0  0  0  0  0  0  0  0  0  0  0
    5.9260   -8.2736   16.5517 C   0  0  0  0  0  0  0  0  0  0  0  0
    3.8816   -9.1166   17.2493 C   0  0  0  0  0  0  0  0  0  0  0  0
   10.1297   -1.6575   23.2324 C   0  0  0  0  0  0  0  0  0  0  0  0
    9.4684   -1.6929   26.7263 F   0  0  0  0  0  0  0  0  0  0  0  0
    7.7963   -7.7906   17.9837 C   0  0  0  0  0  0  0  0  0  0  0  0
   10.5884   -3.0725   16.7902 O   0  0  0  0  0  0  0  0  0  0  0  0
   10.4323   -5.3494   20.3516 C   0  0  0  0  0  0  0  0  0  0  0  0
    7.1156   -7.5454   16.8218 C   0  0  0  0  0  0  0  0  0  0  0  0
   10.3885   -4.4388   19.2773 C   0  0  0  0  0  0  0  0  0  0  0  0
    4.5160   -9.3822   15.0841 C   0  0  0  0  0  0  0  0  0  0  0  0
  1  3  4  0
  1 24  4  0
  2  6  4  0
  2 15  4  0
  3  5  4  0
  3  6  4  0
  4 21  4  0
  4 29  4  0
  5 15  4  0
  5 28  1  0
  6 16  4  0
  7 18  4  0
  7 26  4  0
  8 18  1  0
  8 19  4  0
  8 22  4  0
  9 12  4  0
  9 19  4  0
 10 12  4  0
 10 22  4  0
 11 20  4  0
 11 21  4  0
 12 23  1  0
 13 20  4  0
 13 29  4  0
 14 17  4  0
 14 28  4  0
 15 25  2  0
 16 27  4  0
 17 18  4  0
 20 27  1  0
 24 27  4  0
 26 28  4  0
M  END
$$$$

 Created by Python create_sdf_string function

 29 33  0  0  0  0  0  0  0  0999 V2000
    8.8270   -7.0288   18.4251 C   0  0  0  0  0  0  0  0  0  0  0  0
    9.1576   -4.6236   15.8860 O   0  0  0  0  0  0  0  0  0  0  0  0
    9.1509   -5.9108   17.7177 C   0  0  0  0  0  0  0  0  0  0  0  0
    3.6373   -9.5349   16.0582 N   0  0  0  0  0  0  0  0  0  0  0  0
    9.9275   -4.8001   18.0438 N   0  0  0  0  0  0  0  0  0  0  0  0
    8.5908   -5.7425   16.4412 C   0  0  0  0  0  0  0  0  0  0  0  0
   10.5993   -4.8981   21.6068 C   0  0  0  0  0  0  0  0  0  0  0  0
   10.4258   -3.0106   23.0998 C   0  0  0  0  0  0  0  0  0  0  0  0
   10.2148   -3.4364   25.4200 C   0  0  0  0  0  0  0  0  0  0  0  0
    9.7853   -1.1840   24.4927 C   0  0  0  0  0  0  0  0  0  0  0  0
    5.0276   -8.5227   17.5352 C   0  0  0  0  0  0  0  0  0  0  0  0
    9.8187   -2.0895   25.5800 C   0  0  0  0  0  0  0  0  0  0  0  0
    5.6473   -8.7216   15.3158 C   0  0  0  0  0  0  0  0  0  0  0  0
   10.7581   -3.1233   19.4720 N   0  0  0  0  0  0  0  0  0  0  0  0
    9.9571   -4.0573   16.8866 C   0  0  0  0  0  0  0  0  0  0  0  0
    7.6213   -6.5618   16.0087 C   0  0  0  0  0  0  0  0  0  0  0  0
   10.8583   -2.6527   20.7222 C   0  0  0  0  0  0  0  0  0  0  0  0
   10.6412   -3.5089   21.7936 C   0  0  0  0  0  0  0  0  0  0  0  0
   10.4972   -3.8968   24.1589 C   0  0  0  0  0  0  0  0  0  0  0  0
    5.9260   -8.2736   16.5517 C   0  0  0  0  0  0  0  0  0  0  0  0
    3.8816   -9.1166   17.2493 C   0  0  0  0  0  0  0  0  0  0  0  0
   10.1297   -1.6575   23.2324 C   0  0  0  0  0  0  0  0  0  0  0  0
    9.4684   -1.6929   26.7263 F   0  0  0  0  0  0  0  0  0  0  0  0
    7.7963   -7.7906   17.9837 C   0  0  0  0  0  0  0  0  0  0  0  0
   10.5884   -3.0725   16.7902 O   0  0  0  0  0  0  0  0  0  0  0  0
   10.4323   -5.3494   20.3516 C   0  0  0  0  0  0  0  0  0  0  0  0
    7.1156   -7.5454   16.8218 C   0  0  0  0  0  0  0  0  0  0  0  0
   10.3885   -4.4388   19.2773 C   0  0  0  0  0  0  0  0  0  0  0  0
    4.5160   -9.3822   15.0841 C   0  0  0  0  0  0  0  0  0  0  0  0
  1  3  4  0
  1 24  4  0
  2  6  4  0
  2 15  4  0
  3  5  4  0
  3  6  4  0
  4 21  4  0
  4 29  4  0
  5 15  4  0
  5 28  1  0
  6 16  4  0
  7 18  4  0
  7 26  4  0
  8 18  1  0
  8 19  4  0
  8 22  4  0
  9 12  4  0
  9 19  4  0
 10 12  4  0
 10 22  4  0
 11 20  4  0
 11 21  4  0
 12 23  1  0
 13 20  4  0
 13 29  4  0
 14 17  4  0
 14 28  4  0
 15 25  2  0
 16 27  4  0
 17 18  4  0
 20 27  1  0
 24 27  4  0
 26 28  4  0
M  END
$$$$

 Created by Python create_sdf_string function

 29 33  0  0  0  0  0  0  0  0999 V2000
    8.8270   -7.0288   18.4251 C   0  0  0  0  0  0  0  0  0  0  0  0
    9.1576   -4.6236   15.8860 O   0  0  0  0  0  0  0  0  0  0  0  0
    9.1509   -5.9108   17.7177 C   0  0  0  0  0  0  0  0  0  0  0  0
    3.6373   -9.5349   16.0582 N   0  0  0  0  0  0  0  0  0  0  0  0
    9.9275   -4.8001   18.0438 N   0  0  0  0  0  0  0  0  0  0  0  0
    8.5908   -5.7425   16.4412 C   0  0  0  0  0  0  0  0  0  0  0  0
   10.5993   -4.8981   21.6068 C   0  0  0  0  0  0  0  0  0  0  0  0
   10.4258   -3.0106   23.0998 C   0  0  0  0  0  0  0  0  0  0  0  0
   10.2148   -3.4364   25.4200 C   0  0  0  0  0  0  0  0  0  0  0  0
    9.7853   -1.1840   24.4927 C   0  0  0  0  0  0  0  0  0  0  0  0
    5.0276   -8.5227   17.5352 C   0  0  0  0  0  0  0  0  0  0  0  0
    9.8187   -2.0895   25.5800 C   0  0  0  0  0  0  0  0  0  0  0  0
    5.6473   -8.7216   15.3158 C   0  0  0  0  0  0  0  0  0  0  0  0
   10.7581   -3.1233   19.4720 N   0  0  0  0  0  0  0  0  0  0  0  0
    9.9571   -4.0573   16.8866 C   0  0  0  0  0  0  0  0  0  0  0  0
    7.6213   -6.5618   16.0087 C   0  0  0  0  0  0  0  0  0  0  0  0
   10.8583   -2.6527   20.7222 C   0  0  0  0  0  0  0  0  0  0  0  0
   10.6412   -3.5089   21.7936 C   0  0  0  0  0  0  0  0  0  0  0  0
   10.4972   -3.8968   24.1589 C   0  0  0  0  0  0  0  0  0  0  0  0
    5.9260   -8.2736   16.5517 C   0  0  0  0  0  0  0  0  0  0  0  0
    3.8816   -9.1166   17.2493 C   0  0  0  0  0  0  0  0  0  0  0  0
   10.1297   -1.6575   23.2324 C   0  0  0  0  0  0  0  0  0  0  0  0
    9.4684   -1.6929   26.7263 F   0  0  0  0  0  0  0  0  0  0  0  0
    7.7963   -7.7906   17.9837 C   0  0  0  0  0  0  0  0  0  0  0  0
   10.5884   -3.0725   16.7902 O   0  0  0  0  0  0  0  0  0  0  0  0
   10.4323   -5.3494   20.3516 C   0  0  0  0  0  0  0  0  0  0  0  0
    7.1156   -7.5454   16.8218 C   0  0  0  0  0  0  0  0  0  0  0  0
   10.3885   -4.4388   19.2773 C   0  0  0  0  0  0  0  0  0  0  0  0
    4.5160   -9.3822   15.0841 C   0  0  0  0  0  0  0  0  0  0  0  0
  1  3  4  0
  1 24  4  0
  2  6  4  0
  2 15  4  0
  3  5  4  0
  3  6  4  0
  4 21  4  0
  4 29  4  0
  5 15  4  0
  5 28  1  0
  6 16  4  0
  7 18  4  0
  7 26  4  0
  8 18  1  0
  8 19  4  0
  8 22  4  0
  9 12  4  0
  9 19  4  0
 10 12  4  0
 10 22  4  0
 11 20  4  0
 11 21  4  0
 12 23  1  0
 13 20  4  0
 13 29  4  0
 14 17  4  0
 14 28  4  0
 15 25  2  0
 16 27  4  0
 17 18  4  0
 20 27  1  0
 24 27  4  0
 26 28  4  0
M  END
$$$$

 Created by Python create_sdf_string function

 29 33  0  0  0  0  0  0  0  0999 V2000
    8.8270   -7.0288   18.4251 C   0  0  0  0  0  0  0  0  0  0  0  0
    9.1576   -4.6236   15.8860 O   0  0  0  0  0  0  0  0  0  0  0  0
    9.1509   -5.9108   17.7177 C   0  0  0  0  0  0  0  0  0  0  0  0
    3.6373   -9.5349   16.0582 N   0  0  0  0  0  0  0  0  0  0  0  0
    9.9275   -4.8001   18.0438 N   0  0  0  0  0  0  0  0  0  0  0  0
    8.5908   -5.7425   16.4412 C   0  0  0  0  0  0  0  0  0  0  0  0
   10.5993   -4.8981   21.6068 C   0  0  0  0  0  0  0  0  0  0  0  0
   10.4258   -3.0106   23.0998 C   0  0  0  0  0  0  0  0  0  0  0  0
   10.2148   -3.4364   25.4200 C   0  0  0  0  0  0  0  0  0  0  0  0
    9.7853   -1.1840   24.4927 C   0  0  0  0  0  0  0  0  0  0  0  0
    5.0276   -8.5227   17.5352 C   0  0  0  0  0  0  0  0  0  0  0  0
    9.8187   -2.0895   25.5800 C   0  0  0  0  0  0  0  0  0  0  0  0
    5.6473   -8.7216   15.3158 C   0  0  0  0  0  0  0  0  0  0  0  0
   10.7581   -3.1233   19.4720 N   0  0  0  0  0  0  0  0  0  0  0  0
    9.9571   -4.0573   16.8866 C   0  0  0  0  0  0  0  0  0  0  0  0
    7.6213   -6.5618   16.0087 C   0  0  0  0  0  0  0  0  0  0  0  0
   10.8583   -2.6527   20.7222 C   0  0  0  0  0  0  0  0  0  0  0  0
   10.6412   -3.5089   21.7936 C   0  0  0  0  0  0  0  0  0  0  0  0
   10.4972   -3.8968   24.1589 C   0  0  0  0  0  0  0  0  0  0  0  0
    5.9260   -8.2736   16.5517 C   0  0  0  0  0  0  0  0  0  0  0  0
    3.8816   -9.1166   17.2493 C   0  0  0  0  0  0  0  0  0  0  0  0
   10.1297   -1.6575   23.2324 C   0  0  0  0  0  0  0  0  0  0  0  0
    9.4684   -1.6929   26.7263 F   0  0  0  0  0  0  0  0  0  0  0  0
    7.7963   -7.7906   17.9837 C   0  0  0  0  0  0  0  0  0  0  0  0
   10.5884   -3.0725   16.7902 O   0  0  0  0  0  0  0  0  0  0  0  0
   10.4323   -5.3494   20.3516 C   0  0  0  0  0  0  0  0  0  0  0  0
    7.1156   -7.5454   16.8218 C   0  0  0  0  0  0  0  0  0  0  0  0
   10.3885   -4.4388   19.2773 C   0  0  0  0  0  0  0  0  0  0  0  0
    4.5160   -9.3822   15.0841 C   0  0  0  0  0  0  0  0  0  0  0  0
  1  3  4  0
  1 24  4  0
  2  6  4  0
  2 15  4  0
  3  5  4  0
  3  6  4  0
  4 21  4  0
  4 29  4  0
  5 15  4  0
  5 28  1  0
  6 16  4  0
  7 18  4  0
  7 26  4  0
  8 18  1  0
  8 19  4  0
  8 22  4  0
  9 12  4  0
  9 19  4  0
 10 12  4  0
 10 22  4  0
 11 20  4  0
 11 21  4  0
 12 23  1  0
 13 20  4  0
 13 29  4  0
 14 17  4  0
 14 28  4  0
 15 25  2  0
 16 27  4  0
 17 18  4  0
 20 27  1  0
 24 27  4  0
 26 28  4  0
M  END
$$$$

 Created by Python create_sdf_string function

 29 33  0  0  0  0  0  0  0  0999 V2000
    8.8270   -7.0288   18.4251 C   0  0  0  0  0  0  0  0  0  0  0  0
    9.1576   -4.6236   15.8860 O   0  0  0  0  0  0  0  0  0  0  0  0
    9.1509   -5.9108   17.7177 C   0  0  0  0  0  0  0  0  0  0  0  0
    3.6373   -9.5349   16.0582 N   0  0  0  0  0  0  0  0  0  0  0  0
    9.9275   -4.8001   18.0438 N   0  0  0  0  0  0  0  0  0  0  0  0
    8.5908   -5.7425   16.4412 C   0  0  0  0  0  0  0  0  0  0  0  0
   10.5993   -4.8981   21.6068 C   0  0  0  0  0  0  0  0  0  0  0  0
   10.4258   -3.0106   23.0998 C   0  0  0  0  0  0  0  0  0  0  0  0
   10.2148   -3.4364   25.4200 C   0  0  0  0  0  0  0  0  0  0  0  0
    9.7853   -1.1840   24.4927 C   0  0  0  0  0  0  0  0  0  0  0  0
    5.0276   -8.5227   17.5352 C   0  0  0  0  0  0  0  0  0  0  0  0
    9.8187   -2.0895   25.5800 C   0  0  0  0  0  0  0  0  0  0  0  0
    5.6473   -8.7216   15.3158 C   0  0  0  0  0  0  0  0  0  0  0  0
   10.7581   -3.1233   19.4720 N   0  0  0  0  0  0  0  0  0  0  0  0
    9.9571   -4.0573   16.8866 C   0  0  0  0  0  0  0  0  0  0  0  0
    7.6213   -6.5618   16.0087 C   0  0  0  0  0  0  0  0  0  0  0  0
   10.8583   -2.6527   20.7222 C   0  0  0  0  0  0  0  0  0  0  0  0
   10.6412   -3.5089   21.7936 C   0  0  0  0  0  0  0  0  0  0  0  0
   10.4972   -3.8968   24.1589 C   0  0  0  0  0  0  0  0  0  0  0  0
    5.9260   -8.2736   16.5517 C   0  0  0  0  0  0  0  0  0  0  0  0
    3.8816   -9.1166   17.2493 C   0  0  0  0  0  0  0  0  0  0  0  0
   10.1297   -1.6575   23.2324 C   0  0  0  0  0  0  0  0  0  0  0  0
    9.4684   -1.6929   26.7263 F   0  0  0  0  0  0  0  0  0  0  0  0
    7.7963   -7.7906   17.9837 C   0  0  0  0  0  0  0  0  0  0  0  0
   10.5884   -3.0725   16.7902 O   0  0  0  0  0  0  0  0  0  0  0  0
   10.4323   -5.3494   20.3516 C   0  0  0  0  0  0  0  0  0  0  0  0
    7.1156   -7.5454   16.8218 C   0  0  0  0  0  0  0  0  0  0  0  0
   10.3885   -4.4388   19.2773 C   0  0  0  0  0  0  0  0  0  0  0  0
    4.5160   -9.3822   15.0841 C   0  0  0  0  0  0  0  0  0  0  0  0
  1  3  4  0
  1 24  4  0
  2  6  4  0
  2 15  4  0
  3  5  4  0
  3  6  4  0
  4 21  4  0
  4 29  4  0
  5 15  4  0
  5 28  1  0
  6 16  4  0
  7 18  4  0
  7 26  4  0
  8 18  1  0
  8 19  4  0
  8 22  4  0
  9 12  4  0
  9 19  4  0
 10 12  4  0
 10 22  4  0
 11 20  4  0
 11 21  4  0
 12 23  1  0
 13 20  4  0
 13 29  4  0
 14 17  4  0
 14 28  4  0
 15 25  2  0
 16 27  4  0
 17 18  4  0
 20 27  1  0
 24 27  4  0
 26 28  4  0
M  END
$$$$

 Created by Python create_sdf_string function

 29 33  0  0  0  0  0  0  0  0999 V2000
    8.8270   -7.0288   18.4251 C   0  0  0  0  0  0  0  0  0  0  0  0
    9.1576   -4.6236   15.8860 O   0  0  0  0  0  0  0  0  0  0  0  0
    9.1509   -5.9108   17.7177 C   0  0  0  0  0  0  0  0  0  0  0  0
    3.6373   -9.5349   16.0582 N   0  0  0  0  0  0  0  0  0  0  0  0
    9.9275   -4.8001   18.0438 N   0  0  0  0  0  0  0  0  0  0  0  0
    8.5908   -5.7425   16.4412 C   0  0  0  0  0  0  0  0  0  0  0  0
   10.5993   -4.8981   21.6068 C   0  0  0  0  0  0  0  0  0  0  0  0
   10.4258   -3.0106   23.0998 C   0  0  0  0  0  0  0  0  0  0  0  0
   10.2148   -3.4364   25.4200 C   0  0  0  0  0  0  0  0  0  0  0  0
    9.7853   -1.1840   24.4927 C   0  0  0  0  0  0  0  0  0  0  0  0
    5.0276   -8.5227   17.5352 C   0  0  0  0  0  0  0  0  0  0  0  0
    9.8187   -2.0895   25.5800 C   0  0  0  0  0  0  0  0  0  0  0  0
    5.6473   -8.7216   15.3158 C   0  0  0  0  0  0  0  0  0  0  0  0
   10.7581   -3.1233   19.4720 N   0  0  0  0  0  0  0  0  0  0  0  0
    9.9571   -4.0573   16.8866 C   0  0  0  0  0  0  0  0  0  0  0  0
    7.6213   -6.5618   16.0087 C   0  0  0  0  0  0  0  0  0  0  0  0
   10.8583   -2.6527   20.7222 C   0  0  0  0  0  0  0  0  0  0  0  0
   10.6412   -3.5089   21.7936 C   0  0  0  0  0  0  0  0  0  0  0  0
   10.4972   -3.8968   24.1589 C   0  0  0  0  0  0  0  0  0  0  0  0
    5.9260   -8.2736   16.5517 C   0  0  0  0  0  0  0  0  0  0  0  0
    3.8816   -9.1166   17.2493 C   0  0  0  0  0  0  0  0  0  0  0  0
   10.1297   -1.6575   23.2324 C   0  0  0  0  0  0  0  0  0  0  0  0
    9.4684   -1.6929   26.7263 F   0  0  0  0  0  0  0  0  0  0  0  0
    7.7963   -7.7906   17.9837 C   0  0  0  0  0  0  0  0  0  0  0  0
   10.5884   -3.0725   16.7902 O   0  0  0  0  0  0  0  0  0  0  0  0
   10.4323   -5.3494   20.3516 C   0  0  0  0  0  0  0  0  0  0  0  0
    7.1156   -7.5454   16.8218 C   0  0  0  0  0  0  0  0  0  0  0  0
   10.3885   -4.4388   19.2773 C   0  0  0  0  0  0  0  0  0  0  0  0
    4.5160   -9.3822   15.0841 C   0  0  0  0  0  0  0  0  0  0  0  0
  1  3  4  0
  1 24  4  0
  2  6  4  0
  2 15  4  0
  3  5  4  0
  3  6  4  0
  4 21  4  0
  4 29  4  0
  5 15  4  0
  5 28  1  0
  6 16  4  0
  7 18  4  0
  7 26  4  0
  8 18  1  0
  8 19  4  0
  8 22  4  0
  9 12  4  0
  9 19  4  0
 10 12  4  0
 10 22  4  0
 11 20  4  0
 11 21  4  0
 12 23  1  0
 13 20  4  0
 13 29  4  0
 14 17  4  0
 14 28  4  0
 15 25  2  0
 16 27  4  0
 17 18  4  0
 20 27  1  0
 24 27  4  0
 26 28  4  0
M  END
$$$$

 Created by Python create_sdf_string function

 29 33  0  0  0  0  0  0  0  0999 V2000
    8.8270   -7.0288   18.4251 C   0  0  0  0  0  0  0  0  0  0  0  0
    9.1576   -4.6236   15.8860 O   0  0  0  0  0  0  0  0  0  0  0  0
    9.1509   -5.9108   17.7177 C   0  0  0  0  0  0  0  0  0  0  0  0
    3.6373   -9.5349   16.0582 N   0  0  0  0  0  0  0  0  0  0  0  0
    9.9275   -4.8001   18.0438 N   0  0  0  0  0  0  0  0  0  0  0  0
    8.5908   -5.7425   16.4412 C   0  0  0  0  0  0  0  0  0  0  0  0
   10.5993   -4.8981   21.6068 C   0  0  0  0  0  0  0  0  0  0  0  0
   10.4258   -3.0106   23.0998 C   0  0  0  0  0  0  0  0  0  0  0  0
   10.2148   -3.4364   25.4200 C   0  0  0  0  0  0  0  0  0  0  0  0
    9.7853   -1.1840   24.4927 C   0  0  0  0  0  0  0  0  0  0  0  0
    5.0276   -8.5227   17.5352 C   0  0  0  0  0  0  0  0  0  0  0  0
    9.8187   -2.0895   25.5800 C   0  0  0  0  0  0  0  0  0  0  0  0
    5.6473   -8.7216   15.3158 C   0  0  0  0  0  0  0  0  0  0  0  0
   10.7581   -3.1233   19.4720 N   0  0  0  0  0  0  0  0  0  0  0  0
    9.9571   -4.0573   16.8866 C   0  0  0  0  0  0  0  0  0  0  0  0
    7.6213   -6.5618   16.0087 C   0  0  0  0  0  0  0  0  0  0  0  0
   10.8583   -2.6527   20.7222 C   0  0  0  0  0  0  0  0  0  0  0  0
   10.6412   -3.5089   21.7936 C   0  0  0  0  0  0  0  0  0  0  0  0
   10.4972   -3.8968   24.1589 C   0  0  0  0  0  0  0  0  0  0  0  0
    5.9260   -8.2736   16.5517 C   0  0  0  0  0  0  0  0  0  0  0  0
    3.8816   -9.1166   17.2493 C   0  0  0  0  0  0  0  0  0  0  0  0
   10.1297   -1.6575   23.2324 C   0  0  0  0  0  0  0  0  0  0  0  0
    9.4684   -1.6929   26.7263 F   0  0  0  0  0  0  0  0  0  0  0  0
    7.7963   -7.7906   17.9837 C   0  0  0  0  0  0  0  0  0  0  0  0
   10.5884   -3.0725   16.7902 O   0  0  0  0  0  0  0  0  0  0  0  0
   10.4323   -5.3494   20.3516 C   0  0  0  0  0  0  0  0  0  0  0  0
    7.1156   -7.5454   16.8218 C   0  0  0  0  0  0  0  0  0  0  0  0
   10.3885   -4.4388   19.2773 C   0  0  0  0  0  0  0  0  0  0  0  0
    4.5160   -9.3822   15.0841 C   0  0  0  0  0  0  0  0  0  0  0  0
  1  3  4  0
  1 24  4  0
  2  6  4  0
  2 15  4  0
  3  5  4  0
  3  6  4  0
  4 21  4  0
  4 29  4  0
  5 15  4  0
  5 28  1  0
  6 16  4  0
  7 18  4  0
  7 26  4  0
  8 18  1  0
  8 19  4  0
  8 22  4  0
  9 12  4  0
  9 19  4  0
 10 12  4  0
 10 22  4  0
 11 20  4  0
 11 21  4  0
 12 23  1  0
 13 20  4  0
 13 29  4  0
 14 17  4  0
 14 28  4  0
 15 25  2  0
 16 27  4  0
 17 18  4  0
 20 27  1  0
 24 27  4  0
 26 28  4  0
M  END
$$$$

 Created by Python create_sdf_string function

 29 33  0  0  0  0  0  0  0  0999 V2000
    8.8270   -7.0288   18.4251 C   0  0  0  0  0  0  0  0  0  0  0  0
    9.1576   -4.6236   15.8860 O   0  0  0  0  0  0  0  0  0  0  0  0
    9.1509   -5.9108   17.7177 C   0  0  0  0  0  0  0  0  0  0  0  0
    3.6373   -9.5349   16.0582 N   0  0  0  0  0  0  0  0  0  0  0  0
    9.9275   -4.8001   18.0438 N   0  0  0  0  0  0  0  0  0  0  0  0
    8.5908   -5.7425   16.4412 C   0  0  0  0  0  0  0  0  0  0  0  0
   10.5993   -4.8981   21.6068 C   0  0  0  0  0  0  0  0  0  0  0  0
   10.4258   -3.0106   23.0998 C   0  0  0  0  0  0  0  0  0  0  0  0
   10.2148   -3.4364   25.4200 C   0  0  0  0  0  0  0  0  0  0  0  0
    9.7853   -1.1840   24.4927 C   0  0  0  0  0  0  0  0  0  0  0  0
    5.0276   -8.5227   17.5352 C   0  0  0  0  0  0  0  0  0  0  0  0
    9.8187   -2.0895   25.5800 C   0  0  0  0  0  0  0  0  0  0  0  0
    5.6473   -8.7216   15.3158 C   0  0  0  0  0  0  0  0  0  0  0  0
   10.7581   -3.1233   19.4720 N   0  0  0  0  0  0  0  0  0  0  0  0
    9.9571   -4.0573   16.8866 C   0  0  0  0  0  0  0  0  0  0  0  0
    7.6213   -6.5618   16.0087 C   0  0  0  0  0  0  0  0  0  0  0  0
   10.8583   -2.6527   20.7222 C   0  0  0  0  0  0  0  0  0  0  0  0
   10.6412   -3.5089   21.7936 C   0  0  0  0  0  0  0  0  0  0  0  0
   10.4972   -3.8968   24.1589 C   0  0  0  0  0  0  0  0  0  0  0  0
    5.9260   -8.2736   16.5517 C   0  0  0  0  0  0  0  0  0  0  0  0
    3.8816   -9.1166   17.2493 C   0  0  0  0  0  0  0  0  0  0  0  0
   10.1297   -1.6575   23.2324 C   0  0  0  0  0  0  0  0  0  0  0  0
    9.4684   -1.6929   26.7263 F   0  0  0  0  0  0  0  0  0  0  0  0
    7.7963   -7.7906   17.9837 C   0  0  0  0  0  0  0  0  0  0  0  0
   10.5884   -3.0725   16.7902 O   0  0  0  0  0  0  0  0  0  0  0  0
   10.4323   -5.3494   20.3516 C   0  0  0  0  0  0  0  0  0  0  0  0
    7.1156   -7.5454   16.8218 C   0  0  0  0  0  0  0  0  0  0  0  0
   10.3885   -4.4388   19.2773 C   0  0  0  0  0  0  0  0  0  0  0  0
    4.5160   -9.3822   15.0841 C   0  0  0  0  0  0  0  0  0  0  0  0
  1  3  4  0
  1 24  4  0
  2  6  4  0
  2 15  4  0
  3  5  4  0
  3  6  4  0
  4 21  4  0
  4 29  4  0
  5 15  4  0
  5 28  1  0
  6 16  4  0
  7 18  4  0
  7 26  4  0
  8 18  1  0
  8 19  4  0
  8 22  4  0
  9 12  4  0
  9 19  4  0
 10 12  4  0
 10 22  4  0
 11 20  4  0
 11 21  4  0
 12 23  1  0
 13 20  4  0
 13 29  4  0
 14 17  4  0
 14 28  4  0
 15 25  2  0
 16 27  4  0
 17 18  4  0
 20 27  1  0
 24 27  4  0
 26 28  4  0
M  END
$$$$

 Created by Python create_sdf_string function

 29 33  0  0  0  0  0  0  0  0999 V2000
    8.8270   -7.0288   18.4251 C   0  0  0  0  0  0  0  0  0  0  0  0
    9.1576   -4.6236   15.8860 O   0  0  0  0  0  0  0  0  0  0  0  0
    9.1509   -5.9108   17.7177 C   0  0  0  0  0  0  0  0  0  0  0  0
    3.6373   -9.5349   16.0582 N   0  0  0  0  0  0  0  0  0  0  0  0
    9.9275   -4.8001   18.0438 N   0  0  0  0  0  0  0  0  0  0  0  0
    8.5908   -5.7425   16.4412 C   0  0  0  0  0  0  0  0  0  0  0  0
   10.5993   -4.8981   21.6068 C   0  0  0  0  0  0  0  0  0  0  0  0
   10.4258   -3.0106   23.0998 C   0  0  0  0  0  0  0  0  0  0  0  0
   10.2148   -3.4364   25.4200 C   0  0  0  0  0  0  0  0  0  0  0  0
    9.7853   -1.1840   24.4927 C   0  0  0  0  0  0  0  0  0  0  0  0
    5.0276   -8.5227   17.5352 C   0  0  0  0  0  0  0  0  0  0  0  0
    9.8187   -2.0895   25.5800 C   0  0  0  0  0  0  0  0  0  0  0  0
    5.6473   -8.7216   15.3158 C   0  0  0  0  0  0  0  0  0  0  0  0
   10.7581   -3.1233   19.4720 N   0  0  0  0  0  0  0  0  0  0  0  0
    9.9571   -4.0573   16.8866 C   0  0  0  0  0  0  0  0  0  0  0  0
    7.6213   -6.5618   16.0087 C   0  0  0  0  0  0  0  0  0  0  0  0
   10.8583   -2.6527   20.7222 C   0  0  0  0  0  0  0  0  0  0  0  0
   10.6412   -3.5089   21.7936 C   0  0  0  0  0  0  0  0  0  0  0  0
   10.4972   -3.8968   24.1589 C   0  0  0  0  0  0  0  0  0  0  0  0
    5.9260   -8.2736   16.5517 C   0  0  0  0  0  0  0  0  0  0  0  0
    3.8816   -9.1166   17.2493 C   0  0  0  0  0  0  0  0  0  0  0  0
   10.1297   -1.6575   23.2324 C   0  0  0  0  0  0  0  0  0  0  0  0
    9.4684   -1.6929   26.7263 F   0  0  0  0  0  0  0  0  0  0  0  0
    7.7963   -7.7906   17.9837 C   0  0  0  0  0  0  0  0  0  0  0  0
   10.5884   -3.0725   16.7902 O   0  0  0  0  0  0  0  0  0  0  0  0
   10.4323   -5.3494   20.3516 C   0  0  0  0  0  0  0  0  0  0  0  0
    7.1156   -7.5454   16.8218 C   0  0  0  0  0  0  0  0  0  0  0  0
   10.3885   -4.4388   19.2773 C   0  0  0  0  0  0  0  0  0  0  0  0
    4.5160   -9.3822   15.0841 C   0  0  0  0  0  0  0  0  0  0  0  0
  1  3  4  0
  1 24  4  0
  2  6  4  0
  2 15  4  0
  3  5  4  0
  3  6  4  0
  4 21  4  0
  4 29  4  0
  5 15  4  0
  5 28  1  0
  6 16  4  0
  7 18  4  0
  7 26  4  0
  8 18  1  0
  8 19  4  0
  8 22  4  0
  9 12  4  0
  9 19  4  0
 10 12  4  0
 10 22  4  0
 11 20  4  0
 11 21  4  0
 12 23  1  0
 13 20  4  0
 13 29  4  0
 14 17  4  0
 14 28  4  0
 15 25  2  0
 16 27  4  0
 17 18  4  0
 20 27  1  0
 24 27  4  0
 26 28  4  0
M  END
$$$$

 Created by Python create_sdf_string function

 29 33  0  0  0  0  0  0  0  0999 V2000
    8.8270   -7.0288   18.4251 C   0  0  0  0  0  0  0  0  0  0  0  0
    9.1576   -4.6236   15.8860 O   0  0  0  0  0  0  0  0  0  0  0  0
    9.1509   -5.9108   17.7177 C   0  0  0  0  0  0  0  0  0  0  0  0
    3.6373   -9.5349   16.0582 N   0  0  0  0  0  0  0  0  0  0  0  0
    9.9275   -4.8001   18.0438 N   0  0  0  0  0  0  0  0  0  0  0  0
    8.5908   -5.7425   16.4412 C   0  0  0  0  0  0  0  0  0  0  0  0
   10.5993   -4.8981   21.6068 C   0  0  0  0  0  0  0  0  0  0  0  0
   10.4258   -3.0106   23.0998 C   0  0  0  0  0  0  0  0  0  0  0  0
   10.2148   -3.4364   25.4200 C   0  0  0  0  0  0  0  0  0  0  0  0
    9.7853   -1.1840   24.4927 C   0  0  0  0  0  0  0  0  0  0  0  0
    5.0276   -8.5227   17.5352 C   0  0  0  0  0  0  0  0  0  0  0  0
    9.8187   -2.0895   25.5800 C   0  0  0  0  0  0  0  0  0  0  0  0
    5.6473   -8.7216   15.3158 C   0  0  0  0  0  0  0  0  0  0  0  0
   10.7581   -3.1233   19.4720 N   0  0  0  0  0  0  0  0  0  0  0  0
    9.9571   -4.0573   16.8866 C   0  0  0  0  0  0  0  0  0  0  0  0
    7.6213   -6.5618   16.0087 C   0  0  0  0  0  0  0  0  0  0  0  0
   10.8583   -2.6527   20.7222 C   0  0  0  0  0  0  0  0  0  0  0  0
   10.6412   -3.5089   21.7936 C   0  0  0  0  0  0  0  0  0  0  0  0
   10.4972   -3.8968   24.1589 C   0  0  0  0  0  0  0  0  0  0  0  0
    5.9260   -8.2736   16.5517 C   0  0  0  0  0  0  0  0  0  0  0  0
    3.8816   -9.1166   17.2493 C   0  0  0  0  0  0  0  0  0  0  0  0
   10.1297   -1.6575   23.2324 C   0  0  0  0  0  0  0  0  0  0  0  0
    9.4684   -1.6929   26.7263 F   0  0  0  0  0  0  0  0  0  0  0  0
    7.7963   -7.7906   17.9837 C   0  0  0  0  0  0  0  0  0  0  0  0
   10.5884   -3.0725   16.7902 O   0  0  0  0  0  0  0  0  0  0  0  0
   10.4323   -5.3494   20.3516 C   0  0  0  0  0  0  0  0  0  0  0  0
    7.1156   -7.5454   16.8218 C   0  0  0  0  0  0  0  0  0  0  0  0
   10.3885   -4.4388   19.2773 C   0  0  0  0  0  0  0  0  0  0  0  0
    4.5160   -9.3822   15.0841 C   0  0  0  0  0  0  0  0  0  0  0  0
  1  3  4  0
  1 24  4  0
  2  6  4  0
  2 15  4  0
  3  5  4  0
  3  6  4  0
  4 21  4  0
  4 29  4  0
  5 15  4  0
  5 28  1  0
  6 16  4  0
  7 18  4  0
  7 26  4  0
  8 18  1  0
  8 19  4  0
  8 22  4  0
  9 12  4  0
  9 19  4  0
 10 12  4  0
 10 22  4  0
 11 20  4  0
 11 21  4  0
 12 23  1  0
 13 20  4  0
 13 29  4  0
 14 17  4  0
 14 28  4  0
 15 25  2  0
 16 27  4  0
 17 18  4  0
 20 27  1  0
 24 27  4  0
 26 28  4  0
M  END
$$$$

 Created by Python create_sdf_string function

 29 33  0  0  0  0  0  0  0  0999 V2000
    8.8270   -7.0288   18.4251 C   0  0  0  0  0  0  0  0  0  0  0  0
    9.1576   -4.6236   15.8860 O   0  0  0  0  0  0  0  0  0  0  0  0
    9.1509   -5.9108   17.7177 C   0  0  0  0  0  0  0  0  0  0  0  0
    3.6373   -9.5349   16.0582 N   0  0  0  0  0  0  0  0  0  0  0  0
    9.9275   -4.8001   18.0438 N   0  0  0  0  0  0  0  0  0  0  0  0
    8.5908   -5.7425   16.4412 C   0  0  0  0  0  0  0  0  0  0  0  0
   10.5993   -4.8981   21.6068 C   0  0  0  0  0  0  0  0  0  0  0  0
   10.4258   -3.0106   23.0998 C   0  0  0  0  0  0  0  0  0  0  0  0
   10.2148   -3.4364   25.4200 C   0  0  0  0  0  0  0  0  0  0  0  0
    9.7853   -1.1840   24.4927 C   0  0  0  0  0  0  0  0  0  0  0  0
    5.0276   -8.5227   17.5352 C   0  0  0  0  0  0  0  0  0  0  0  0
    9.8187   -2.0895   25.5800 C   0  0  0  0  0  0  0  0  0  0  0  0
    5.6473   -8.7216   15.3158 C   0  0  0  0  0  0  0  0  0  0  0  0
   10.7581   -3.1233   19.4720 N   0  0  0  0  0  0  0  0  0  0  0  0
    9.9571   -4.0573   16.8866 C   0  0  0  0  0  0  0  0  0  0  0  0
    7.6213   -6.5618   16.0087 C   0  0  0  0  0  0  0  0  0  0  0  0
   10.8583   -2.6527   20.7222 C   0  0  0  0  0  0  0  0  0  0  0  0
   10.6412   -3.5089   21.7936 C   0  0  0  0  0  0  0  0  0  0  0  0
   10.4972   -3.8968   24.1589 C   0  0  0  0  0  0  0  0  0  0  0  0
    5.9260   -8.2736   16.5517 C   0  0  0  0  0  0  0  0  0  0  0  0
    3.8816   -9.1166   17.2493 C   0  0  0  0  0  0  0  0  0  0  0  0
   10.1297   -1.6575   23.2324 C   0  0  0  0  0  0  0  0  0  0  0  0
    9.4684   -1.6929   26.7263 F   0  0  0  0  0  0  0  0  0  0  0  0
    7.7963   -7.7906   17.9837 C   0  0  0  0  0  0  0  0  0  0  0  0
   10.5884   -3.0725   16.7902 O   0  0  0  0  0  0  0  0  0  0  0  0
   10.4323   -5.3494   20.3516 C   0  0  0  0  0  0  0  0  0  0  0  0
    7.1156   -7.5454   16.8218 C   0  0  0  0  0  0  0  0  0  0  0  0
   10.3885   -4.4388   19.2773 C   0  0  0  0  0  0  0  0  0  0  0  0
    4.5160   -9.3822   15.0841 C   0  0  0  0  0  0  0  0  0  0  0  0
  1  3  4  0
  1 24  4  0
  2  6  4  0
  2 15  4  0
  3  5  4  0
  3  6  4  0
  4 21  4  0
  4 29  4  0
  5 15  4  0
  5 28  1  0
  6 16  4  0
  7 18  4  0
  7 26  4  0
  8 18  1  0
  8 19  4  0
  8 22  4  0
  9 12  4  0
  9 19  4  0
 10 12  4  0
 10 22  4  0
 11 20  4  0
 11 21  4  0
 12 23  1  0
 13 20  4  0
 13 29  4  0
 14 17  4  0
 14 28  4  0
 15 25  2  0
 16 27  4  0
 17 18  4  0
 20 27  1  0
 24 27  4  0
 26 28  4  0
M  END
$$$$

 Created by Python create_sdf_string function

 29 33  0  0  0  0  0  0  0  0999 V2000
    8.8270   -7.0288   18.4251 C   0  0  0  0  0  0  0  0  0  0  0  0
    9.1576   -4.6236   15.8860 O   0  0  0  0  0  0  0  0  0  0  0  0
    9.1509   -5.9108   17.7177 C   0  0  0  0  0  0  0  0  0  0  0  0
    3.6373   -9.5349   16.0582 N   0  0  0  0  0  0  0  0  0  0  0  0
    9.9275   -4.8001   18.0438 N   0  0  0  0  0  0  0  0  0  0  0  0
    8.5908   -5.7425   16.4412 C   0  0  0  0  0  0  0  0  0  0  0  0
   10.5993   -4.8981   21.6068 C   0  0  0  0  0  0  0  0  0  0  0  0
   10.4258   -3.0106   23.0998 C   0  0  0  0  0  0  0  0  0  0  0  0
   10.2148   -3.4364   25.4200 C   0  0  0  0  0  0  0  0  0  0  0  0
    9.7853   -1.1840   24.4927 C   0  0  0  0  0  0  0  0  0  0  0  0
    5.0276   -8.5227   17.5352 C   0  0  0  0  0  0  0  0  0  0  0  0
    9.8187   -2.0895   25.5800 C   0  0  0  0  0  0  0  0  0  0  0  0
    5.6473   -8.7216   15.3158 C   0  0  0  0  0  0  0  0  0  0  0  0
   10.7581   -3.1233   19.4720 N   0  0  0  0  0  0  0  0  0  0  0  0
    9.9571   -4.0573   16.8866 C   0  0  0  0  0  0  0  0  0  0  0  0
    7.6213   -6.5618   16.0087 C   0  0  0  0  0  0  0  0  0  0  0  0
   10.8583   -2.6527   20.7222 C   0  0  0  0  0  0  0  0  0  0  0  0
   10.6412   -3.5089   21.7936 C   0  0  0  0  0  0  0  0  0  0  0  0
   10.4972   -3.8968   24.1589 C   0  0  0  0  0  0  0  0  0  0  0  0
    5.9260   -8.2736   16.5517 C   0  0  0  0  0  0  0  0  0  0  0  0
    3.8816   -9.1166   17.2493 C   0  0  0  0  0  0  0  0  0  0  0  0
   10.1297   -1.6575   23.2324 C   0  0  0  0  0  0  0  0  0  0  0  0
    9.4684   -1.6929   26.7263 F   0  0  0  0  0  0  0  0  0  0  0  0
    7.7963   -7.7906   17.9837 C   0  0  0  0  0  0  0  0  0  0  0  0
   10.5884   -3.0725   16.7902 O   0  0  0  0  0  0  0  0  0  0  0  0
   10.4323   -5.3494   20.3516 C   0  0  0  0  0  0  0  0  0  0  0  0
    7.1156   -7.5454   16.8218 C   0  0  0  0  0  0  0  0  0  0  0  0
   10.3885   -4.4388   19.2773 C   0  0  0  0  0  0  0  0  0  0  0  0
    4.5160   -9.3822   15.0841 C   0  0  0  0  0  0  0  0  0  0  0  0
  1  3  4  0
  1 24  4  0
  2  6  4  0
  2 15  4  0
  3  5  4  0
  3  6  4  0
  4 21  4  0
  4 29  4  0
  5 15  4  0
  5 28  1  0
  6 16  4  0
  7 18  4  0
  7 26  4  0
  8 18  1  0
  8 19  4  0
  8 22  4  0
  9 12  4  0
  9 19  4  0
 10 12  4  0
 10 22  4  0
 11 20  4  0
 11 21  4  0
 12 23  1  0
 13 20  4  0
 13 29  4  0
 14 17  4  0
 14 28  4  0
 15 25  2  0
 16 27  4  0
 17 18  4  0
 20 27  1  0
 24 27  4  0
 26 28  4  0
M  END
$$$$

 Created by Python create_sdf_string function

 29 33  0  0  0  0  0  0  0  0999 V2000
    8.8270   -7.0288   18.4251 C   0  0  0  0  0  0  0  0  0  0  0  0
    9.1576   -4.6236   15.8860 O   0  0  0  0  0  0  0  0  0  0  0  0
    9.1509   -5.9108   17.7177 C   0  0  0  0  0  0  0  0  0  0  0  0
    3.6373   -9.5349   16.0582 N   0  0  0  0  0  0  0  0  0  0  0  0
    9.9275   -4.8001   18.0438 N   0  0  0  0  0  0  0  0  0  0  0  0
    8.5908   -5.7425   16.4412 C   0  0  0  0  0  0  0  0  0  0  0  0
   10.5993   -4.8981   21.6068 C   0  0  0  0  0  0  0  0  0  0  0  0
   10.4258   -3.0106   23.0998 C   0  0  0  0  0  0  0  0  0  0  0  0
   10.2148   -3.4364   25.4200 C   0  0  0  0  0  0  0  0  0  0  0  0
    9.7853   -1.1840   24.4927 C   0  0  0  0  0  0  0  0  0  0  0  0
    5.0276   -8.5227   17.5352 C   0  0  0  0  0  0  0  0  0  0  0  0
    9.8187   -2.0895   25.5800 C   0  0  0  0  0  0  0  0  0  0  0  0
    5.6473   -8.7216   15.3158 C   0  0  0  0  0  0  0  0  0  0  0  0
   10.7581   -3.1233   19.4720 N   0  0  0  0  0  0  0  0  0  0  0  0
    9.9571   -4.0573   16.8866 C   0  0  0  0  0  0  0  0  0  0  0  0
    7.6213   -6.5618   16.0087 C   0  0  0  0  0  0  0  0  0  0  0  0
   10.8583   -2.6527   20.7222 C   0  0  0  0  0  0  0  0  0  0  0  0
   10.6412   -3.5089   21.7936 C   0  0  0  0  0  0  0  0  0  0  0  0
   10.4972   -3.8968   24.1589 C   0  0  0  0  0  0  0  0  0  0  0  0
    5.9260   -8.2736   16.5517 C   0  0  0  0  0  0  0  0  0  0  0  0
    3.8816   -9.1166   17.2493 C   0  0  0  0  0  0  0  0  0  0  0  0
   10.1297   -1.6575   23.2324 C   0  0  0  0  0  0  0  0  0  0  0  0
    9.4684   -1.6929   26.7263 F   0  0  0  0  0  0  0  0  0  0  0  0
    7.7963   -7.7906   17.9837 C   0  0  0  0  0  0  0  0  0  0  0  0
   10.5884   -3.0725   16.7902 O   0  0  0  0  0  0  0  0  0  0  0  0
   10.4323   -5.3494   20.3516 C   0  0  0  0  0  0  0  0  0  0  0  0
    7.1156   -7.5454   16.8218 C   0  0  0  0  0  0  0  0  0  0  0  0
   10.3885   -4.4388   19.2773 C   0  0  0  0  0  0  0  0  0  0  0  0
    4.5160   -9.3822   15.0841 C   0  0  0  0  0  0  0  0  0  0  0  0
  1  3  4  0
  1 24  4  0
  2  6  4  0
  2 15  4  0
  3  5  4  0
  3  6  4  0
  4 21  4  0
  4 29  4  0
  5 15  4  0
  5 28  1  0
  6 16  4  0
  7 18  4  0
  7 26  4  0
  8 18  1  0
  8 19  4  0
  8 22  4  0
  9 12  4  0
  9 19  4  0
 10 12  4  0
 10 22  4  0
 11 20  4  0
 11 21  4  0
 12 23  1  0
 13 20  4  0
 13 29  4  0
 14 17  4  0
 14 28  4  0
 15 25  2  0
 16 27  4  0
 17 18  4  0
 20 27  1  0
 24 27  4  0
 26 28  4  0
M  END
$$$$

 Created by Python create_sdf_string function

 29 33  0  0  0  0  0  0  0  0999 V2000
    8.8270   -7.0288   18.4251 C   0  0  0  0  0  0  0  0  0  0  0  0
    9.1576   -4.6236   15.8860 O   0  0  0  0  0  0  0  0  0  0  0  0
    9.1509   -5.9108   17.7177 C   0  0  0  0  0  0  0  0  0  0  0  0
    3.6373   -9.5349   16.0582 N   0  0  0  0  0  0  0  0  0  0  0  0
    9.9275   -4.8001   18.0438 N   0  0  0  0  0  0  0  0  0  0  0  0
    8.5908   -5.7425   16.4412 C   0  0  0  0  0  0  0  0  0  0  0  0
   10.5993   -4.8981   21.6068 C   0  0  0  0  0  0  0  0  0  0  0  0
   10.4258   -3.0106   23.0998 C   0  0  0  0  0  0  0  0  0  0  0  0
   10.2148   -3.4364   25.4200 C   0  0  0  0  0  0  0  0  0  0  0  0
    9.7853   -1.1840   24.4927 C   0  0  0  0  0  0  0  0  0  0  0  0
    5.0276   -8.5227   17.5352 C   0  0  0  0  0  0  0  0  0  0  0  0
    9.8187   -2.0895   25.5800 C   0  0  0  0  0  0  0  0  0  0  0  0
    5.6473   -8.7216   15.3158 C   0  0  0  0  0  0  0  0  0  0  0  0
   10.7581   -3.1233   19.4720 N   0  0  0  0  0  0  0  0  0  0  0  0
    9.9571   -4.0573   16.8866 C   0  0  0  0  0  0  0  0  0  0  0  0
    7.6213   -6.5618   16.0087 C   0  0  0  0  0  0  0  0  0  0  0  0
   10.8583   -2.6527   20.7222 C   0  0  0  0  0  0  0  0  0  0  0  0
   10.6412   -3.5089   21.7936 C   0  0  0  0  0  0  0  0  0  0  0  0
   10.4972   -3.8968   24.1589 C   0  0  0  0  0  0  0  0  0  0  0  0
    5.9260   -8.2736   16.5517 C   0  0  0  0  0  0  0  0  0  0  0  0
    3.8816   -9.1166   17.2493 C   0  0  0  0  0  0  0  0  0  0  0  0
   10.1297   -1.6575   23.2324 C   0  0  0  0  0  0  0  0  0  0  0  0
    9.4684   -1.6929   26.7263 F   0  0  0  0  0  0  0  0  0  0  0  0
    7.7963   -7.7906   17.9837 C   0  0  0  0  0  0  0  0  0  0  0  0
   10.5884   -3.0725   16.7902 O   0  0  0  0  0  0  0  0  0  0  0  0
   10.4323   -5.3494   20.3516 C   0  0  0  0  0  0  0  0  0  0  0  0
    7.1156   -7.5454   16.8218 C   0  0  0  0  0  0  0  0  0  0  0  0
   10.3885   -4.4388   19.2773 C   0  0  0  0  0  0  0  0  0  0  0  0
    4.5160   -9.3822   15.0841 C   0  0  0  0  0  0  0  0  0  0  0  0
  1  3  4  0
  1 24  4  0
  2  6  4  0
  2 15  4  0
  3  5  4  0
  3  6  4  0
  4 21  4  0
  4 29  4  0
  5 15  4  0
  5 28  1  0
  6 16  4  0
  7 18  4  0
  7 26  4  0
  8 18  1  0
  8 19  4  0
  8 22  4  0
  9 12  4  0
  9 19  4  0
 10 12  4  0
 10 22  4  0
 11 20  4  0
 11 21  4  0
 12 23  1  0
 13 20  4  0
 13 29  4  0
 14 17  4  0
 14 28  4  0
 15 25  2  0
 16 27  4  0
 17 18  4  0
 20 27  1  0
 24 27  4  0
 26 28  4  0
M  END
$$$$

 Created by Python create_sdf_string function

 29 33  0  0  0  0  0  0  0  0999 V2000
    8.8270   -7.0288   18.4251 C   0  0  0  0  0  0  0  0  0  0  0  0
    9.1576   -4.6236   15.8860 O   0  0  0  0  0  0  0  0  0  0  0  0
    9.1509   -5.9108   17.7177 C   0  0  0  0  0  0  0  0  0  0  0  0
    3.6373   -9.5349   16.0582 N   0  0  0  0  0  0  0  0  0  0  0  0
    9.9275   -4.8001   18.0438 N   0  0  0  0  0  0  0  0  0  0  0  0
    8.5908   -5.7425   16.4412 C   0  0  0  0  0  0  0  0  0  0  0  0
   10.5993   -4.8981   21.6068 C   0  0  0  0  0  0  0  0  0  0  0  0
   10.4258   -3.0106   23.0998 C   0  0  0  0  0  0  0  0  0  0  0  0
   10.2148   -3.4364   25.4200 C   0  0  0  0  0  0  0  0  0  0  0  0
    9.7853   -1.1840   24.4927 C   0  0  0  0  0  0  0  0  0  0  0  0
    5.0276   -8.5227   17.5352 C   0  0  0  0  0  0  0  0  0  0  0  0
    9.8187   -2.0895   25.5800 C   0  0  0  0  0  0  0  0  0  0  0  0
    5.6473   -8.7216   15.3158 C   0  0  0  0  0  0  0  0  0  0  0  0
   10.7581   -3.1233   19.4720 N   0  0  0  0  0  0  0  0  0  0  0  0
    9.9571   -4.0573   16.8866 C   0  0  0  0  0  0  0  0  0  0  0  0
    7.6213   -6.5618   16.0087 C   0  0  0  0  0  0  0  0  0  0  0  0
   10.8583   -2.6527   20.7222 C   0  0  0  0  0  0  0  0  0  0  0  0
   10.6412   -3.5089   21.7936 C   0  0  0  0  0  0  0  0  0  0  0  0
   10.4972   -3.8968   24.1589 C   0  0  0  0  0  0  0  0  0  0  0  0
    5.9260   -8.2736   16.5517 C   0  0  0  0  0  0  0  0  0  0  0  0
    3.8816   -9.1166   17.2493 C   0  0  0  0  0  0  0  0  0  0  0  0
   10.1297   -1.6575   23.2324 C   0  0  0  0  0  0  0  0  0  0  0  0
    9.4684   -1.6929   26.7263 F   0  0  0  0  0  0  0  0  0  0  0  0
    7.7963   -7.7906   17.9837 C   0  0  0  0  0  0  0  0  0  0  0  0
   10.5884   -3.0725   16.7902 O   0  0  0  0  0  0  0  0  0  0  0  0
   10.4323   -5.3494   20.3516 C   0  0  0  0  0  0  0  0  0  0  0  0
    7.1156   -7.5454   16.8218 C   0  0  0  0  0  0  0  0  0  0  0  0
   10.3885   -4.4388   19.2773 C   0  0  0  0  0  0  0  0  0  0  0  0
    4.5160   -9.3822   15.0841 C   0  0  0  0  0  0  0  0  0  0  0  0
  1  3  4  0
  1 24  4  0
  2  6  4  0
  2 15  4  0
  3  5  4  0
  3  6  4  0
  4 21  4  0
  4 29  4  0
  5 15  4  0
  5 28  1  0
  6 16  4  0
  7 18  4  0
  7 26  4  0
  8 18  1  0
  8 19  4  0
  8 22  4  0
  9 12  4  0
  9 19  4  0
 10 12  4  0
 10 22  4  0
 11 20  4  0
 11 21  4  0
 12 23  1  0
 13 20  4  0
 13 29  4  0
 14 17  4  0
 14 28  4  0
 15 25  2  0
 16 27  4  0
 17 18  4  0
 20 27  1  0
 24 27  4  0
 26 28  4  0
M  END
$$$$

 Created by Python create_sdf_string function

 29 33  0  0  0  0  0  0  0  0999 V2000
    8.8270   -7.0288   18.4251 C   0  0  0  0  0  0  0  0  0  0  0  0
    9.1576   -4.6236   15.8860 O   0  0  0  0  0  0  0  0  0  0  0  0
    9.1509   -5.9108   17.7177 C   0  0  0  0  0  0  0  0  0  0  0  0
    3.6373   -9.5349   16.0582 N   0  0  0  0  0  0  0  0  0  0  0  0
    9.9275   -4.8001   18.0438 N   0  0  0  0  0  0  0  0  0  0  0  0
    8.5908   -5.7425   16.4412 C   0  0  0  0  0  0  0  0  0  0  0  0
   10.5993   -4.8981   21.6068 C   0  0  0  0  0  0  0  0  0  0  0  0
   10.4258   -3.0106   23.0998 C   0  0  0  0  0  0  0  0  0  0  0  0
   10.2148   -3.4364   25.4200 C   0  0  0  0  0  0  0  0  0  0  0  0
    9.7853   -1.1840   24.4927 C   0  0  0  0  0  0  0  0  0  0  0  0
    5.0276   -8.5227   17.5352 C   0  0  0  0  0  0  0  0  0  0  0  0
    9.8187   -2.0895   25.5800 C   0  0  0  0  0  0  0  0  0  0  0  0
    5.6473   -8.7216   15.3158 C   0  0  0  0  0  0  0  0  0  0  0  0
   10.7581   -3.1233   19.4720 N   0  0  0  0  0  0  0  0  0  0  0  0
    9.9571   -4.0573   16.8866 C   0  0  0  0  0  0  0  0  0  0  0  0
    7.6213   -6.5618   16.0087 C   0  0  0  0  0  0  0  0  0  0  0  0
   10.8583   -2.6527   20.7222 C   0  0  0  0  0  0  0  0  0  0  0  0
   10.6412   -3.5089   21.7936 C   0  0  0  0  0  0  0  0  0  0  0  0
   10.4972   -3.8968   24.1589 C   0  0  0  0  0  0  0  0  0  0  0  0
    5.9260   -8.2736   16.5517 C   0  0  0  0  0  0  0  0  0  0  0  0
    3.8816   -9.1166   17.2493 C   0  0  0  0  0  0  0  0  0  0  0  0
   10.1297   -1.6575   23.2324 C   0  0  0  0  0  0  0  0  0  0  0  0
    9.4684   -1.6929   26.7263 F   0  0  0  0  0  0  0  0  0  0  0  0
    7.7963   -7.7906   17.9837 C   0  0  0  0  0  0  0  0  0  0  0  0
   10.5884   -3.0725   16.7902 O   0  0  0  0  0  0  0  0  0  0  0  0
   10.4323   -5.3494   20.3516 C   0  0  0  0  0  0  0  0  0  0  0  0
    7.1156   -7.5454   16.8218 C   0  0  0  0  0  0  0  0  0  0  0  0
   10.3885   -4.4388   19.2773 C   0  0  0  0  0  0  0  0  0  0  0  0
    4.5160   -9.3822   15.0841 C   0  0  0  0  0  0  0  0  0  0  0  0
  1  3  4  0
  1 24  4  0
  2  6  4  0
  2 15  4  0
  3  5  4  0
  3  6  4  0
  4 21  4  0
  4 29  4  0
  5 15  4  0
  5 28  1  0
  6 16  4  0
  7 18  4  0
  7 26  4  0
  8 18  1  0
  8 19  4  0
  8 22  4  0
  9 12  4  0
  9 19  4  0
 10 12  4  0
 10 22  4  0
 11 20  4  0
 11 21  4  0
 12 23  1  0
 13 20  4  0
 13 29  4  0
 14 17  4  0
 14 28  4  0
 15 25  2  0
 16 27  4  0
 17 18  4  0
 20 27  1  0
 24 27  4  0
 26 28  4  0
M  END
$$$$

 Created by Python create_sdf_string function

 29 33  0  0  0  0  0  0  0  0999 V2000
    8.8270   -7.0288   18.4251 C   0  0  0  0  0  0  0  0  0  0  0  0
    9.1576   -4.6236   15.8860 O   0  0  0  0  0  0  0  0  0  0  0  0
    9.1509   -5.9108   17.7177 C   0  0  0  0  0  0  0  0  0  0  0  0
    3.6373   -9.5349   16.0582 N   0  0  0  0  0  0  0  0  0  0  0  0
    9.9275   -4.8001   18.0438 N   0  0  0  0  0  0  0  0  0  0  0  0
    8.5908   -5.7425   16.4412 C   0  0  0  0  0  0  0  0  0  0  0  0
   10.5993   -4.8981   21.6068 C   0  0  0  0  0  0  0  0  0  0  0  0
   10.4258   -3.0106   23.0998 C   0  0  0  0  0  0  0  0  0  0  0  0
   10.2148   -3.4364   25.4200 C   0  0  0  0  0  0  0  0  0  0  0  0
    9.7853   -1.1840   24.4927 C   0  0  0  0  0  0  0  0  0  0  0  0
    5.0276   -8.5227   17.5352 C   0  0  0  0  0  0  0  0  0  0  0  0
    9.8187   -2.0895   25.5800 C   0  0  0  0  0  0  0  0  0  0  0  0
    5.6473   -8.7216   15.3158 C   0  0  0  0  0  0  0  0  0  0  0  0
   10.7581   -3.1233   19.4720 N   0  0  0  0  0  0  0  0  0  0  0  0
    9.9571   -4.0573   16.8866 C   0  0  0  0  0  0  0  0  0  0  0  0
    7.6213   -6.5618   16.0087 C   0  0  0  0  0  0  0  0  0  0  0  0
   10.8583   -2.6527   20.7222 C   0  0  0  0  0  0  0  0  0  0  0  0
   10.6412   -3.5089   21.7936 C   0  0  0  0  0  0  0  0  0  0  0  0
   10.4972   -3.8968   24.1589 C   0  0  0  0  0  0  0  0  0  0  0  0
    5.9260   -8.2736   16.5517 C   0  0  0  0  0  0  0  0  0  0  0  0
    3.8816   -9.1166   17.2493 C   0  0  0  0  0  0  0  0  0  0  0  0
   10.1297   -1.6575   23.2324 C   0  0  0  0  0  0  0  0  0  0  0  0
    9.4684   -1.6929   26.7263 F   0  0  0  0  0  0  0  0  0  0  0  0
    7.7963   -7.7906   17.9837 C   0  0  0  0  0  0  0  0  0  0  0  0
   10.5884   -3.0725   16.7902 O   0  0  0  0  0  0  0  0  0  0  0  0
   10.4323   -5.3494   20.3516 C   0  0  0  0  0  0  0  0  0  0  0  0
    7.1156   -7.5454   16.8218 C   0  0  0  0  0  0  0  0  0  0  0  0
   10.3885   -4.4388   19.2773 C   0  0  0  0  0  0  0  0  0  0  0  0
    4.5160   -9.3822   15.0841 C   0  0  0  0  0  0  0  0  0  0  0  0
  1  3  4  0
  1 24  4  0
  2  6  4  0
  2 15  4  0
  3  5  4  0
  3  6  4  0
  4 21  4  0
  4 29  4  0
  5 15  4  0
  5 28  1  0
  6 16  4  0
  7 18  4  0
  7 26  4  0
  8 18  1  0
  8 19  4  0
  8 22  4  0
  9 12  4  0
  9 19  4  0
 10 12  4  0
 10 22  4  0
 11 20  4  0
 11 21  4  0
 12 23  1  0
 13 20  4  0
 13 29  4  0
 14 17  4  0
 14 28  4  0
 15 25  2  0
 16 27  4  0
 17 18  4  0
 20 27  1  0
 24 27  4  0
 26 28  4  0
M  END
$$$$

 Created by Python create_sdf_string function

 29 33  0  0  0  0  0  0  0  0999 V2000
    8.8270   -7.0288   18.4251 C   0  0  0  0  0  0  0  0  0  0  0  0
    9.1576   -4.6236   15.8860 O   0  0  0  0  0  0  0  0  0  0  0  0
    9.1509   -5.9108   17.7177 C   0  0  0  0  0  0  0  0  0  0  0  0
    3.6373   -9.5349   16.0582 N   0  0  0  0  0  0  0  0  0  0  0  0
    9.9275   -4.8001   18.0438 N   0  0  0  0  0  0  0  0  0  0  0  0
    8.5908   -5.7425   16.4412 C   0  0  0  0  0  0  0  0  0  0  0  0
   10.5993   -4.8981   21.6068 C   0  0  0  0  0  0  0  0  0  0  0  0
   10.4258   -3.0106   23.0998 C   0  0  0  0  0  0  0  0  0  0  0  0
   10.2148   -3.4364   25.4200 C   0  0  0  0  0  0  0  0  0  0  0  0
    9.7853   -1.1840   24.4927 C   0  0  0  0  0  0  0  0  0  0  0  0
    5.0276   -8.5227   17.5352 C   0  0  0  0  0  0  0  0  0  0  0  0
    9.8187   -2.0895   25.5800 C   0  0  0  0  0  0  0  0  0  0  0  0
    5.6473   -8.7216   15.3158 C   0  0  0  0  0  0  0  0  0  0  0  0
   10.7581   -3.1233   19.4720 N   0  0  0  0  0  0  0  0  0  0  0  0
    9.9571   -4.0573   16.8866 C   0  0  0  0  0  0  0  0  0  0  0  0
    7.6213   -6.5618   16.0087 C   0  0  0  0  0  0  0  0  0  0  0  0
   10.8583   -2.6527   20.7222 C   0  0  0  0  0  0  0  0  0  0  0  0
   10.6412   -3.5089   21.7936 C   0  0  0  0  0  0  0  0  0  0  0  0
   10.4972   -3.8968   24.1589 C   0  0  0  0  0  0  0  0  0  0  0  0
    5.9260   -8.2736   16.5517 C   0  0  0  0  0  0  0  0  0  0  0  0
    3.8816   -9.1166   17.2493 C   0  0  0  0  0  0  0  0  0  0  0  0
   10.1297   -1.6575   23.2324 C   0  0  0  0  0  0  0  0  0  0  0  0
    9.4684   -1.6929   26.7263 F   0  0  0  0  0  0  0  0  0  0  0  0
    7.7963   -7.7906   17.9837 C   0  0  0  0  0  0  0  0  0  0  0  0
   10.5884   -3.0725   16.7902 O   0  0  0  0  0  0  0  0  0  0  0  0
   10.4323   -5.3494   20.3516 C   0  0  0  0  0  0  0  0  0  0  0  0
    7.1156   -7.5454   16.8218 C   0  0  0  0  0  0  0  0  0  0  0  0
   10.3885   -4.4388   19.2773 C   0  0  0  0  0  0  0  0  0  0  0  0
    4.5160   -9.3822   15.0841 C   0  0  0  0  0  0  0  0  0  0  0  0
  1  3  4  0
  1 24  4  0
  2  6  4  0
  2 15  4  0
  3  5  4  0
  3  6  4  0
  4 21  4  0
  4 29  4  0
  5 15  4  0
  5 28  1  0
  6 16  4  0
  7 18  4  0
  7 26  4  0
  8 18  1  0
  8 19  4  0
  8 22  4  0
  9 12  4  0
  9 19  4  0
 10 12  4  0
 10 22  4  0
 11 20  4  0
 11 21  4  0
 12 23  1  0
 13 20  4  0
 13 29  4  0
 14 17  4  0
 14 28  4  0
 15 25  2  0
 16 27  4  0
 17 18  4  0
 20 27  1  0
 24 27  4  0
 26 28  4  0
M  END
$$$$

 Created by Python create_sdf_string function

 29 33  0  0  0  0  0  0  0  0999 V2000
    8.8270   -7.0288   18.4251 C   0  0  0  0  0  0  0  0  0  0  0  0
    9.1576   -4.6236   15.8860 O   0  0  0  0  0  0  0  0  0  0  0  0
    9.1509   -5.9108   17.7177 C   0  0  0  0  0  0  0  0  0  0  0  0
    3.6373   -9.5349   16.0582 N   0  0  0  0  0  0  0  0  0  0  0  0
    9.9275   -4.8001   18.0438 N   0  0  0  0  0  0  0  0  0  0  0  0
    8.5908   -5.7425   16.4412 C   0  0  0  0  0  0  0  0  0  0  0  0
   10.5993   -4.8981   21.6068 C   0  0  0  0  0  0  0  0  0  0  0  0
   10.4258   -3.0106   23.0998 C   0  0  0  0  0  0  0  0  0  0  0  0
   10.2148   -3.4364   25.4200 C   0  0  0  0  0  0  0  0  0  0  0  0
    9.7853   -1.1840   24.4927 C   0  0  0  0  0  0  0  0  0  0  0  0
    5.0276   -8.5227   17.5352 C   0  0  0  0  0  0  0  0  0  0  0  0
    9.8187   -2.0895   25.5800 C   0  0  0  0  0  0  0  0  0  0  0  0
    5.6473   -8.7216   15.3158 C   0  0  0  0  0  0  0  0  0  0  0  0
   10.7581   -3.1233   19.4720 N   0  0  0  0  0  0  0  0  0  0  0  0
    9.9571   -4.0573   16.8866 C   0  0  0  0  0  0  0  0  0  0  0  0
    7.6213   -6.5618   16.0087 C   0  0  0  0  0  0  0  0  0  0  0  0
   10.8583   -2.6527   20.7222 C   0  0  0  0  0  0  0  0  0  0  0  0
   10.6412   -3.5089   21.7936 C   0  0  0  0  0  0  0  0  0  0  0  0
   10.4972   -3.8968   24.1589 C   0  0  0  0  0  0  0  0  0  0  0  0
    5.9260   -8.2736   16.5517 C   0  0  0  0  0  0  0  0  0  0  0  0
    3.8816   -9.1166   17.2493 C   0  0  0  0  0  0  0  0  0  0  0  0
   10.1297   -1.6575   23.2324 C   0  0  0  0  0  0  0  0  0  0  0  0
    9.4684   -1.6929   26.7263 F   0  0  0  0  0  0  0  0  0  0  0  0
    7.7963   -7.7906   17.9837 C   0  0  0  0  0  0  0  0  0  0  0  0
   10.5884   -3.0725   16.7902 O   0  0  0  0  0  0  0  0  0  0  0  0
   10.4323   -5.3494   20.3516 C   0  0  0  0  0  0  0  0  0  0  0  0
    7.1156   -7.5454   16.8218 C   0  0  0  0  0  0  0  0  0  0  0  0
   10.3885   -4.4388   19.2773 C   0  0  0  0  0  0  0  0  0  0  0  0
    4.5160   -9.3822   15.0841 C   0  0  0  0  0  0  0  0  0  0  0  0
  1  3  4  0
  1 24  4  0
  2  6  4  0
  2 15  4  0
  3  5  4  0
  3  6  4  0
  4 21  4  0
  4 29  4  0
  5 15  4  0
  5 28  1  0
  6 16  4  0
  7 18  4  0
  7 26  4  0
  8 18  1  0
  8 19  4  0
  8 22  4  0
  9 12  4  0
  9 19  4  0
 10 12  4  0
 10 22  4  0
 11 20  4  0
 11 21  4  0
 12 23  1  0
 13 20  4  0
 13 29  4  0
 14 17  4  0
 14 28  4  0
 15 25  2  0
 16 27  4  0
 17 18  4  0
 20 27  1  0
 24 27  4  0
 26 28  4  0
M  END
$$$$

 Created by Python create_sdf_string function

 29 33  0  0  0  0  0  0  0  0999 V2000
    8.8270   -7.0288   18.4251 C   0  0  0  0  0  0  0  0  0  0  0  0
    9.1576   -4.6236   15.8860 O   0  0  0  0  0  0  0  0  0  0  0  0
    9.1509   -5.9108   17.7177 C   0  0  0  0  0  0  0  0  0  0  0  0
    3.6373   -9.5349   16.0582 N   0  0  0  0  0  0  0  0  0  0  0  0
    9.9275   -4.8001   18.0438 N   0  0  0  0  0  0  0  0  0  0  0  0
    8.5908   -5.7425   16.4412 C   0  0  0  0  0  0  0  0  0  0  0  0
   10.5993   -4.8981   21.6068 C   0  0  0  0  0  0  0  0  0  0  0  0
   10.4258   -3.0106   23.0998 C   0  0  0  0  0  0  0  0  0  0  0  0
   10.2148   -3.4364   25.4200 C   0  0  0  0  0  0  0  0  0  0  0  0
    9.7853   -1.1840   24.4927 C   0  0  0  0  0  0  0  0  0  0  0  0
    5.0276   -8.5227   17.5352 C   0  0  0  0  0  0  0  0  0  0  0  0
    9.8187   -2.0895   25.5800 C   0  0  0  0  0  0  0  0  0  0  0  0
    5.6473   -8.7216   15.3158 C   0  0  0  0  0  0  0  0  0  0  0  0
   10.7581   -3.1233   19.4720 N   0  0  0  0  0  0  0  0  0  0  0  0
    9.9571   -4.0573   16.8866 C   0  0  0  0  0  0  0  0  0  0  0  0
    7.6213   -6.5618   16.0087 C   0  0  0  0  0  0  0  0  0  0  0  0
   10.8583   -2.6527   20.7222 C   0  0  0  0  0  0  0  0  0  0  0  0
   10.6412   -3.5089   21.7936 C   0  0  0  0  0  0  0  0  0  0  0  0
   10.4972   -3.8968   24.1589 C   0  0  0  0  0  0  0  0  0  0  0  0
    5.9260   -8.2736   16.5517 C   0  0  0  0  0  0  0  0  0  0  0  0
    3.8816   -9.1166   17.2493 C   0  0  0  0  0  0  0  0  0  0  0  0
   10.1297   -1.6575   23.2324 C   0  0  0  0  0  0  0  0  0  0  0  0
    9.4684   -1.6929   26.7263 F   0  0  0  0  0  0  0  0  0  0  0  0
    7.7963   -7.7906   17.9837 C   0  0  0  0  0  0  0  0  0  0  0  0
   10.5884   -3.0725   16.7902 O   0  0  0  0  0  0  0  0  0  0  0  0
   10.4323   -5.3494   20.3516 C   0  0  0  0  0  0  0  0  0  0  0  0
    7.1156   -7.5454   16.8218 C   0  0  0  0  0  0  0  0  0  0  0  0
   10.3885   -4.4388   19.2773 C   0  0  0  0  0  0  0  0  0  0  0  0
    4.5160   -9.3822   15.0841 C   0  0  0  0  0  0  0  0  0  0  0  0
  1  3  4  0
  1 24  4  0
  2  6  4  0
  2 15  4  0
  3  5  4  0
  3  6  4  0
  4 21  4  0
  4 29  4  0
  5 15  4  0
  5 28  1  0
  6 16  4  0
  7 18  4  0
  7 26  4  0
  8 18  1  0
  8 19  4  0
  8 22  4  0
  9 12  4  0
  9 19  4  0
 10 12  4  0
 10 22  4  0
 11 20  4  0
 11 21  4  0
 12 23  1  0
 13 20  4  0
 13 29  4  0
 14 17  4  0
 14 28  4  0
 15 25  2  0
 16 27  4  0
 17 18  4  0
 20 27  1  0
 24 27  4  0
 26 28  4  0
M  END
$$$$

 Created by Python create_sdf_string function

 29 33  0  0  0  0  0  0  0  0999 V2000
    8.8270   -7.0288   18.4251 C   0  0  0  0  0  0  0  0  0  0  0  0
    9.1576   -4.6236   15.8860 O   0  0  0  0  0  0  0  0  0  0  0  0
    9.1509   -5.9108   17.7177 C   0  0  0  0  0  0  0  0  0  0  0  0
    3.6373   -9.5349   16.0582 N   0  0  0  0  0  0  0  0  0  0  0  0
    9.9275   -4.8001   18.0438 N   0  0  0  0  0  0  0  0  0  0  0  0
    8.5908   -5.7425   16.4412 C   0  0  0  0  0  0  0  0  0  0  0  0
   10.5993   -4.8981   21.6068 C   0  0  0  0  0  0  0  0  0  0  0  0
   10.4258   -3.0106   23.0998 C   0  0  0  0  0  0  0  0  0  0  0  0
   10.2148   -3.4364   25.4200 C   0  0  0  0  0  0  0  0  0  0  0  0
    9.7853   -1.1840   24.4927 C   0  0  0  0  0  0  0  0  0  0  0  0
    5.0276   -8.5227   17.5352 C   0  0  0  0  0  0  0  0  0  0  0  0
    9.8187   -2.0895   25.5800 C   0  0  0  0  0  0  0  0  0  0  0  0
    5.6473   -8.7216   15.3158 C   0  0  0  0  0  0  0  0  0  0  0  0
   10.7581   -3.1233   19.4720 N   0  0  0  0  0  0  0  0  0  0  0  0
    9.9571   -4.0573   16.8866 C   0  0  0  0  0  0  0  0  0  0  0  0
    7.6213   -6.5618   16.0087 C   0  0  0  0  0  0  0  0  0  0  0  0
   10.8583   -2.6527   20.7222 C   0  0  0  0  0  0  0  0  0  0  0  0
   10.6412   -3.5089   21.7936 C   0  0  0  0  0  0  0  0  0  0  0  0
   10.4972   -3.8968   24.1589 C   0  0  0  0  0  0  0  0  0  0  0  0
    5.9260   -8.2736   16.5517 C   0  0  0  0  0  0  0  0  0  0  0  0
    3.8816   -9.1166   17.2493 C   0  0  0  0  0  0  0  0  0  0  0  0
   10.1297   -1.6575   23.2324 C   0  0  0  0  0  0  0  0  0  0  0  0
    9.4684   -1.6929   26.7263 F   0  0  0  0  0  0  0  0  0  0  0  0
    7.7963   -7.7906   17.9837 C   0  0  0  0  0  0  0  0  0  0  0  0
   10.5884   -3.0725   16.7902 O   0  0  0  0  0  0  0  0  0  0  0  0
   10.4323   -5.3494   20.3516 C   0  0  0  0  0  0  0  0  0  0  0  0
    7.1156   -7.5454   16.8218 C   0  0  0  0  0  0  0  0  0  0  0  0
   10.3885   -4.4388   19.2773 C   0  0  0  0  0  0  0  0  0  0  0  0
    4.5160   -9.3822   15.0841 C   0  0  0  0  0  0  0  0  0  0  0  0
  1  3  4  0
  1 24  4  0
  2  6  4  0
  2 15  4  0
  3  5  4  0
  3  6  4  0
  4 21  4  0
  4 29  4  0
  5 15  4  0
  5 28  1  0
  6 16  4  0
  7 18  4  0
  7 26  4  0
  8 18  1  0
  8 19  4  0
  8 22  4  0
  9 12  4  0
  9 19  4  0
 10 12  4  0
 10 22  4  0
 11 20  4  0
 11 21  4  0
 12 23  1  0
 13 20  4  0
 13 29  4  0
 14 17  4  0
 14 28  4  0
 15 25  2  0
 16 27  4  0
 17 18  4  0
 20 27  1  0
 24 27  4  0
 26 28  4  0
M  END
$$$$

 Created by Python create_sdf_string function

 29 33  0  0  0  0  0  0  0  0999 V2000
    8.8270   -7.0288   18.4251 C   0  0  0  0  0  0  0  0  0  0  0  0
    9.1576   -4.6236   15.8860 O   0  0  0  0  0  0  0  0  0  0  0  0
    9.1509   -5.9108   17.7177 C   0  0  0  0  0  0  0  0  0  0  0  0
    3.6373   -9.5349   16.0582 N   0  0  0  0  0  0  0  0  0  0  0  0
    9.9275   -4.8001   18.0438 N   0  0  0  0  0  0  0  0  0  0  0  0
    8.5908   -5.7425   16.4412 C   0  0  0  0  0  0  0  0  0  0  0  0
   10.5993   -4.8981   21.6068 C   0  0  0  0  0  0  0  0  0  0  0  0
   10.4258   -3.0106   23.0998 C   0  0  0  0  0  0  0  0  0  0  0  0
   10.2148   -3.4364   25.4200 C   0  0  0  0  0  0  0  0  0  0  0  0
    9.7853   -1.1840   24.4927 C   0  0  0  0  0  0  0  0  0  0  0  0
    5.0276   -8.5227   17.5352 C   0  0  0  0  0  0  0  0  0  0  0  0
    9.8187   -2.0895   25.5800 C   0  0  0  0  0  0  0  0  0  0  0  0
    5.6473   -8.7216   15.3158 C   0  0  0  0  0  0  0  0  0  0  0  0
   10.7581   -3.1233   19.4720 N   0  0  0  0  0  0  0  0  0  0  0  0
    9.9571   -4.0573   16.8866 C   0  0  0  0  0  0  0  0  0  0  0  0
    7.6213   -6.5618   16.0087 C   0  0  0  0  0  0  0  0  0  0  0  0
   10.8583   -2.6527   20.7222 C   0  0  0  0  0  0  0  0  0  0  0  0
   10.6412   -3.5089   21.7936 C   0  0  0  0  0  0  0  0  0  0  0  0
   10.4972   -3.8968   24.1589 C   0  0  0  0  0  0  0  0  0  0  0  0
    5.9260   -8.2736   16.5517 C   0  0  0  0  0  0  0  0  0  0  0  0
    3.8816   -9.1166   17.2493 C   0  0  0  0  0  0  0  0  0  0  0  0
   10.1297   -1.6575   23.2324 C   0  0  0  0  0  0  0  0  0  0  0  0
    9.4684   -1.6929   26.7263 F   0  0  0  0  0  0  0  0  0  0  0  0
    7.7963   -7.7906   17.9837 C   0  0  0  0  0  0  0  0  0  0  0  0
   10.5884   -3.0725   16.7902 O   0  0  0  0  0  0  0  0  0  0  0  0
   10.4323   -5.3494   20.3516 C   0  0  0  0  0  0  0  0  0  0  0  0
    7.1156   -7.5454   16.8218 C   0  0  0  0  0  0  0  0  0  0  0  0
   10.3885   -4.4388   19.2773 C   0  0  0  0  0  0  0  0  0  0  0  0
    4.5160   -9.3822   15.0841 C   0  0  0  0  0  0  0  0  0  0  0  0
  1  3  4  0
  1 24  4  0
  2  6  4  0
  2 15  4  0
  3  5  4  0
  3  6  4  0
  4 21  4  0
  4 29  4  0
  5 15  4  0
  5 28  1  0
  6 16  4  0
  7 18  4  0
  7 26  4  0
  8 18  1  0
  8 19  4  0
  8 22  4  0
  9 12  4  0
  9 19  4  0
 10 12  4  0
 10 22  4  0
 11 20  4  0
 11 21  4  0
 12 23  1  0
 13 20  4  0
 13 29  4  0
 14 17  4  0
 14 28  4  0
 15 25  2  0
 16 27  4  0
 17 18  4  0
 20 27  1  0
 24 27  4  0
 26 28  4  0
M  END
$$$$

 Created by Python create_sdf_string function

 29 33  0  0  0  0  0  0  0  0999 V2000
    8.8270   -7.0288   18.4251 C   0  0  0  0  0  0  0  0  0  0  0  0
    9.1576   -4.6236   15.8860 O   0  0  0  0  0  0  0  0  0  0  0  0
    9.1509   -5.9108   17.7177 C   0  0  0  0  0  0  0  0  0  0  0  0
    3.6373   -9.5349   16.0582 N   0  0  0  0  0  0  0  0  0  0  0  0
    9.9275   -4.8001   18.0438 N   0  0  0  0  0  0  0  0  0  0  0  0
    8.5908   -5.7425   16.4412 C   0  0  0  0  0  0  0  0  0  0  0  0
   10.5993   -4.8981   21.6068 C   0  0  0  0  0  0  0  0  0  0  0  0
   10.4258   -3.0106   23.0998 C   0  0  0  0  0  0  0  0  0  0  0  0
   10.2148   -3.4364   25.4200 C   0  0  0  0  0  0  0  0  0  0  0  0
    9.7853   -1.1840   24.4927 C   0  0  0  0  0  0  0  0  0  0  0  0
    5.0276   -8.5227   17.5352 C   0  0  0  0  0  0  0  0  0  0  0  0
    9.8187   -2.0895   25.5800 C   0  0  0  0  0  0  0  0  0  0  0  0
    5.6473   -8.7216   15.3158 C   0  0  0  0  0  0  0  0  0  0  0  0
   10.7581   -3.1233   19.4720 N   0  0  0  0  0  0  0  0  0  0  0  0
    9.9571   -4.0573   16.8866 C   0  0  0  0  0  0  0  0  0  0  0  0
    7.6213   -6.5618   16.0087 C   0  0  0  0  0  0  0  0  0  0  0  0
   10.8583   -2.6527   20.7222 C   0  0  0  0  0  0  0  0  0  0  0  0
   10.6412   -3.5089   21.7936 C   0  0  0  0  0  0  0  0  0  0  0  0
   10.4972   -3.8968   24.1589 C   0  0  0  0  0  0  0  0  0  0  0  0
    5.9260   -8.2736   16.5517 C   0  0  0  0  0  0  0  0  0  0  0  0
    3.8816   -9.1166   17.2493 C   0  0  0  0  0  0  0  0  0  0  0  0
   10.1297   -1.6575   23.2324 C   0  0  0  0  0  0  0  0  0  0  0  0
    9.4684   -1.6929   26.7263 F   0  0  0  0  0  0  0  0  0  0  0  0
    7.7963   -7.7906   17.9837 C   0  0  0  0  0  0  0  0  0  0  0  0
   10.5884   -3.0725   16.7902 O   0  0  0  0  0  0  0  0  0  0  0  0
   10.4323   -5.3494   20.3516 C   0  0  0  0  0  0  0  0  0  0  0  0
    7.1156   -7.5454   16.8218 C   0  0  0  0  0  0  0  0  0  0  0  0
   10.3885   -4.4388   19.2773 C   0  0  0  0  0  0  0  0  0  0  0  0
    4.5160   -9.3822   15.0841 C   0  0  0  0  0  0  0  0  0  0  0  0
  1  3  4  0
  1 24  4  0
  2  6  4  0
  2 15  4  0
  3  5  4  0
  3  6  4  0
  4 21  4  0
  4 29  4  0
  5 15  4  0
  5 28  1  0
  6 16  4  0
  7 18  4  0
  7 26  4  0
  8 18  1  0
  8 19  4  0
  8 22  4  0
  9 12  4  0
  9 19  4  0
 10 12  4  0
 10 22  4  0
 11 20  4  0
 11 21  4  0
 12 23  1  0
 13 20  4  0
 13 29  4  0
 14 17  4  0
 14 28  4  0
 15 25  2  0
 16 27  4  0
 17 18  4  0
 20 27  1  0
 24 27  4  0
 26 28  4  0
M  END
$$$$

 Created by Python create_sdf_string function

 29 33  0  0  0  0  0  0  0  0999 V2000
    8.8270   -7.0288   18.4251 C   0  0  0  0  0  0  0  0  0  0  0  0
    9.1576   -4.6236   15.8860 O   0  0  0  0  0  0  0  0  0  0  0  0
    9.1509   -5.9108   17.7177 C   0  0  0  0  0  0  0  0  0  0  0  0
    3.6373   -9.5349   16.0582 N   0  0  0  0  0  0  0  0  0  0  0  0
    9.9275   -4.8001   18.0438 N   0  0  0  0  0  0  0  0  0  0  0  0
    8.5908   -5.7425   16.4412 C   0  0  0  0  0  0  0  0  0  0  0  0
   10.5993   -4.8981   21.6068 C   0  0  0  0  0  0  0  0  0  0  0  0
   10.4258   -3.0106   23.0998 C   0  0  0  0  0  0  0  0  0  0  0  0
   10.2148   -3.4364   25.4200 C   0  0  0  0  0  0  0  0  0  0  0  0
    9.7853   -1.1840   24.4927 C   0  0  0  0  0  0  0  0  0  0  0  0
    5.0276   -8.5227   17.5352 C   0  0  0  0  0  0  0  0  0  0  0  0
    9.8187   -2.0895   25.5800 C   0  0  0  0  0  0  0  0  0  0  0  0
    5.6473   -8.7216   15.3158 C   0  0  0  0  0  0  0  0  0  0  0  0
   10.7581   -3.1233   19.4720 N   0  0  0  0  0  0  0  0  0  0  0  0
    9.9571   -4.0573   16.8866 C   0  0  0  0  0  0  0  0  0  0  0  0
    7.6213   -6.5618   16.0087 C   0  0  0  0  0  0  0  0  0  0  0  0
   10.8583   -2.6527   20.7222 C   0  0  0  0  0  0  0  0  0  0  0  0
   10.6412   -3.5089   21.7936 C   0  0  0  0  0  0  0  0  0  0  0  0
   10.4972   -3.8968   24.1589 C   0  0  0  0  0  0  0  0  0  0  0  0
    5.9260   -8.2736   16.5517 C   0  0  0  0  0  0  0  0  0  0  0  0
    3.8816   -9.1166   17.2493 C   0  0  0  0  0  0  0  0  0  0  0  0
   10.1297   -1.6575   23.2324 C   0  0  0  0  0  0  0  0  0  0  0  0
    9.4684   -1.6929   26.7263 F   0  0  0  0  0  0  0  0  0  0  0  0
    7.7963   -7.7906   17.9837 C   0  0  0  0  0  0  0  0  0  0  0  0
   10.5884   -3.0725   16.7902 O   0  0  0  0  0  0  0  0  0  0  0  0
   10.4323   -5.3494   20.3516 C   0  0  0  0  0  0  0  0  0  0  0  0
    7.1156   -7.5454   16.8218 C   0  0  0  0  0  0  0  0  0  0  0  0
   10.3885   -4.4388   19.2773 C   0  0  0  0  0  0  0  0  0  0  0  0
    4.5160   -9.3822   15.0841 C   0  0  0  0  0  0  0  0  0  0  0  0
  1  3  4  0
  1 24  4  0
  2  6  4  0
  2 15  4  0
  3  5  4  0
  3  6  4  0
  4 21  4  0
  4 29  4  0
  5 15  4  0
  5 28  1  0
  6 16  4  0
  7 18  4  0
  7 26  4  0
  8 18  1  0
  8 19  4  0
  8 22  4  0
  9 12  4  0
  9 19  4  0
 10 12  4  0
 10 22  4  0
 11 20  4  0
 11 21  4  0
 12 23  1  0
 13 20  4  0
 13 29  4  0
 14 17  4  0
 14 28  4  0
 15 25  2  0
 16 27  4  0
 17 18  4  0
 20 27  1  0
 24 27  4  0
 26 28  4  0
M  END
$$$$

 Created by Python create_sdf_string function

 29 33  0  0  0  0  0  0  0  0999 V2000
    8.8270   -7.0288   18.4251 C   0  0  0  0  0  0  0  0  0  0  0  0
    9.1576   -4.6236   15.8860 O   0  0  0  0  0  0  0  0  0  0  0  0
    9.1509   -5.9108   17.7177 C   0  0  0  0  0  0  0  0  0  0  0  0
    3.6373   -9.5349   16.0582 N   0  0  0  0  0  0  0  0  0  0  0  0
    9.9275   -4.8001   18.0438 N   0  0  0  0  0  0  0  0  0  0  0  0
    8.5908   -5.7425   16.4412 C   0  0  0  0  0  0  0  0  0  0  0  0
   10.5993   -4.8981   21.6068 C   0  0  0  0  0  0  0  0  0  0  0  0
   10.4258   -3.0106   23.0998 C   0  0  0  0  0  0  0  0  0  0  0  0
   10.2148   -3.4364   25.4200 C   0  0  0  0  0  0  0  0  0  0  0  0
    9.7853   -1.1840   24.4927 C   0  0  0  0  0  0  0  0  0  0  0  0
    5.0276   -8.5227   17.5352 C   0  0  0  0  0  0  0  0  0  0  0  0
    9.8187   -2.0895   25.5800 C   0  0  0  0  0  0  0  0  0  0  0  0
    5.6473   -8.7216   15.3158 C   0  0  0  0  0  0  0  0  0  0  0  0
   10.7581   -3.1233   19.4720 N   0  0  0  0  0  0  0  0  0  0  0  0
    9.9571   -4.0573   16.8866 C   0  0  0  0  0  0  0  0  0  0  0  0
    7.6213   -6.5618   16.0087 C   0  0  0  0  0  0  0  0  0  0  0  0
   10.8583   -2.6527   20.7222 C   0  0  0  0  0  0  0  0  0  0  0  0
   10.6412   -3.5089   21.7936 C   0  0  0  0  0  0  0  0  0  0  0  0
   10.4972   -3.8968   24.1589 C   0  0  0  0  0  0  0  0  0  0  0  0
    5.9260   -8.2736   16.5517 C   0  0  0  0  0  0  0  0  0  0  0  0
    3.8816   -9.1166   17.2493 C   0  0  0  0  0  0  0  0  0  0  0  0
   10.1297   -1.6575   23.2324 C   0  0  0  0  0  0  0  0  0  0  0  0
    9.4684   -1.6929   26.7263 F   0  0  0  0  0  0  0  0  0  0  0  0
    7.7963   -7.7906   17.9837 C   0  0  0  0  0  0  0  0  0  0  0  0
   10.5884   -3.0725   16.7902 O   0  0  0  0  0  0  0  0  0  0  0  0
   10.4323   -5.3494   20.3516 C   0  0  0  0  0  0  0  0  0  0  0  0
    7.1156   -7.5454   16.8218 C   0  0  0  0  0  0  0  0  0  0  0  0
   10.3885   -4.4388   19.2773 C   0  0  0  0  0  0  0  0  0  0  0  0
    4.5160   -9.3822   15.0841 C   0  0  0  0  0  0  0  0  0  0  0  0
  1  3  4  0
  1 24  4  0
  2  6  4  0
  2 15  4  0
  3  5  4  0
  3  6  4  0
  4 21  4  0
  4 29  4  0
  5 15  4  0
  5 28  1  0
  6 16  4  0
  7 18  4  0
  7 26  4  0
  8 18  1  0
  8 19  4  0
  8 22  4  0
  9 12  4  0
  9 19  4  0
 10 12  4  0
 10 22  4  0
 11 20  4  0
 11 21  4  0
 12 23  1  0
 13 20  4  0
 13 29  4  0
 14 17  4  0
 14 28  4  0
 15 25  2  0
 16 27  4  0
 17 18  4  0
 20 27  1  0
 24 27  4  0
 26 28  4  0
M  END
$$$$

 Created by Python create_sdf_string function

 29 33  0  0  0  0  0  0  0  0999 V2000
    8.8270   -7.0288   18.4251 C   0  0  0  0  0  0  0  0  0  0  0  0
    9.1576   -4.6236   15.8860 O   0  0  0  0  0  0  0  0  0  0  0  0
    9.1509   -5.9108   17.7177 C   0  0  0  0  0  0  0  0  0  0  0  0
    3.6373   -9.5349   16.0582 N   0  0  0  0  0  0  0  0  0  0  0  0
    9.9275   -4.8001   18.0438 N   0  0  0  0  0  0  0  0  0  0  0  0
    8.5908   -5.7425   16.4412 C   0  0  0  0  0  0  0  0  0  0  0  0
   10.5993   -4.8981   21.6068 C   0  0  0  0  0  0  0  0  0  0  0  0
   10.4258   -3.0106   23.0998 C   0  0  0  0  0  0  0  0  0  0  0  0
   10.2148   -3.4364   25.4200 C   0  0  0  0  0  0  0  0  0  0  0  0
    9.7853   -1.1840   24.4927 C   0  0  0  0  0  0  0  0  0  0  0  0
    5.0276   -8.5227   17.5352 C   0  0  0  0  0  0  0  0  0  0  0  0
    9.8187   -2.0895   25.5800 C   0  0  0  0  0  0  0  0  0  0  0  0
    5.6473   -8.7216   15.3158 C   0  0  0  0  0  0  0  0  0  0  0  0
   10.7581   -3.1233   19.4720 N   0  0  0  0  0  0  0  0  0  0  0  0
    9.9571   -4.0573   16.8866 C   0  0  0  0  0  0  0  0  0  0  0  0
    7.6213   -6.5618   16.0087 C   0  0  0  0  0  0  0  0  0  0  0  0
   10.8583   -2.6527   20.7222 C   0  0  0  0  0  0  0  0  0  0  0  0
   10.6412   -3.5089   21.7936 C   0  0  0  0  0  0  0  0  0  0  0  0
   10.4972   -3.8968   24.1589 C   0  0  0  0  0  0  0  0  0  0  0  0
    5.9260   -8.2736   16.5517 C   0  0  0  0  0  0  0  0  0  0  0  0
    3.8816   -9.1166   17.2493 C   0  0  0  0  0  0  0  0  0  0  0  0
   10.1297   -1.6575   23.2324 C   0  0  0  0  0  0  0  0  0  0  0  0
    9.4684   -1.6929   26.7263 F   0  0  0  0  0  0  0  0  0  0  0  0
    7.7963   -7.7906   17.9837 C   0  0  0  0  0  0  0  0  0  0  0  0
   10.5884   -3.0725   16.7902 O   0  0  0  0  0  0  0  0  0  0  0  0
   10.4323   -5.3494   20.3516 C   0  0  0  0  0  0  0  0  0  0  0  0
    7.1156   -7.5454   16.8218 C   0  0  0  0  0  0  0  0  0  0  0  0
   10.3885   -4.4388   19.2773 C   0  0  0  0  0  0  0  0  0  0  0  0
    4.5160   -9.3822   15.0841 C   0  0  0  0  0  0  0  0  0  0  0  0
  1  3  4  0
  1 24  4  0
  2  6  4  0
  2 15  4  0
  3  5  4  0
  3  6  4  0
  4 21  4  0
  4 29  4  0
  5 15  4  0
  5 28  1  0
  6 16  4  0
  7 18  4  0
  7 26  4  0
  8 18  1  0
  8 19  4  0
  8 22  4  0
  9 12  4  0
  9 19  4  0
 10 12  4  0
 10 22  4  0
 11 20  4  0
 11 21  4  0
 12 23  1  0
 13 20  4  0
 13 29  4  0
 14 17  4  0
 14 28  4  0
 15 25  2  0
 16 27  4  0
 17 18  4  0
 20 27  1  0
 24 27  4  0
 26 28  4  0
M  END
$$$$

 Created by Python create_sdf_string function

 29 33  0  0  0  0  0  0  0  0999 V2000
    8.8270   -7.0288   18.4251 C   0  0  0  0  0  0  0  0  0  0  0  0
    9.1576   -4.6236   15.8860 O   0  0  0  0  0  0  0  0  0  0  0  0
    9.1509   -5.9108   17.7177 C   0  0  0  0  0  0  0  0  0  0  0  0
    3.6373   -9.5349   16.0582 N   0  0  0  0  0  0  0  0  0  0  0  0
    9.9275   -4.8001   18.0438 N   0  0  0  0  0  0  0  0  0  0  0  0
    8.5908   -5.7425   16.4412 C   0  0  0  0  0  0  0  0  0  0  0  0
   10.5993   -4.8981   21.6068 C   0  0  0  0  0  0  0  0  0  0  0  0
   10.4258   -3.0106   23.0998 C   0  0  0  0  0  0  0  0  0  0  0  0
   10.2148   -3.4364   25.4200 C   0  0  0  0  0  0  0  0  0  0  0  0
    9.7853   -1.1840   24.4927 C   0  0  0  0  0  0  0  0  0  0  0  0
    5.0276   -8.5227   17.5352 C   0  0  0  0  0  0  0  0  0  0  0  0
    9.8187   -2.0895   25.5800 C   0  0  0  0  0  0  0  0  0  0  0  0
    5.6473   -8.7216   15.3158 C   0  0  0  0  0  0  0  0  0  0  0  0
   10.7581   -3.1233   19.4720 N   0  0  0  0  0  0  0  0  0  0  0  0
    9.9571   -4.0573   16.8866 C   0  0  0  0  0  0  0  0  0  0  0  0
    7.6213   -6.5618   16.0087 C   0  0  0  0  0  0  0  0  0  0  0  0
   10.8583   -2.6527   20.7222 C   0  0  0  0  0  0  0  0  0  0  0  0
   10.6412   -3.5089   21.7936 C   0  0  0  0  0  0  0  0  0  0  0  0
   10.4972   -3.8968   24.1589 C   0  0  0  0  0  0  0  0  0  0  0  0
    5.9260   -8.2736   16.5517 C   0  0  0  0  0  0  0  0  0  0  0  0
    3.8816   -9.1166   17.2493 C   0  0  0  0  0  0  0  0  0  0  0  0
   10.1297   -1.6575   23.2324 C   0  0  0  0  0  0  0  0  0  0  0  0
    9.4684   -1.6929   26.7263 F   0  0  0  0  0  0  0  0  0  0  0  0
    7.7963   -7.7906   17.9837 C   0  0  0  0  0  0  0  0  0  0  0  0
   10.5884   -3.0725   16.7902 O   0  0  0  0  0  0  0  0  0  0  0  0
   10.4323   -5.3494   20.3516 C   0  0  0  0  0  0  0  0  0  0  0  0
    7.1156   -7.5454   16.8218 C   0  0  0  0  0  0  0  0  0  0  0  0
   10.3885   -4.4388   19.2773 C   0  0  0  0  0  0  0  0  0  0  0  0
    4.5160   -9.3822   15.0841 C   0  0  0  0  0  0  0  0  0  0  0  0
  1  3  4  0
  1 24  4  0
  2  6  4  0
  2 15  4  0
  3  5  4  0
  3  6  4  0
  4 21  4  0
  4 29  4  0
  5 15  4  0
  5 28  1  0
  6 16  4  0
  7 18  4  0
  7 26  4  0
  8 18  1  0
  8 19  4  0
  8 22  4  0
  9 12  4  0
  9 19  4  0
 10 12  4  0
 10 22  4  0
 11 20  4  0
 11 21  4  0
 12 23  1  0
 13 20  4  0
 13 29  4  0
 14 17  4  0
 14 28  4  0
 15 25  2  0
 16 27  4  0
 17 18  4  0
 20 27  1  0
 24 27  4  0
 26 28  4  0
M  END
$$$$

 Created by Python create_sdf_string function

 29 33  0  0  0  0  0  0  0  0999 V2000
    8.8270   -7.0288   18.4251 C   0  0  0  0  0  0  0  0  0  0  0  0
    9.1576   -4.6236   15.8860 O   0  0  0  0  0  0  0  0  0  0  0  0
    9.1509   -5.9108   17.7177 C   0  0  0  0  0  0  0  0  0  0  0  0
    3.6373   -9.5349   16.0582 N   0  0  0  0  0  0  0  0  0  0  0  0
    9.9275   -4.8001   18.0438 N   0  0  0  0  0  0  0  0  0  0  0  0
    8.5908   -5.7425   16.4412 C   0  0  0  0  0  0  0  0  0  0  0  0
   10.5993   -4.8981   21.6068 C   0  0  0  0  0  0  0  0  0  0  0  0
   10.4258   -3.0106   23.0998 C   0  0  0  0  0  0  0  0  0  0  0  0
   10.2148   -3.4364   25.4200 C   0  0  0  0  0  0  0  0  0  0  0  0
    9.7853   -1.1840   24.4927 C   0  0  0  0  0  0  0  0  0  0  0  0
    5.0276   -8.5227   17.5352 C   0  0  0  0  0  0  0  0  0  0  0  0
    9.8187   -2.0895   25.5800 C   0  0  0  0  0  0  0  0  0  0  0  0
    5.6473   -8.7216   15.3158 C   0  0  0  0  0  0  0  0  0  0  0  0
   10.7581   -3.1233   19.4720 N   0  0  0  0  0  0  0  0  0  0  0  0
    9.9571   -4.0573   16.8866 C   0  0  0  0  0  0  0  0  0  0  0  0
    7.6213   -6.5618   16.0087 C   0  0  0  0  0  0  0  0  0  0  0  0
   10.8583   -2.6527   20.7222 C   0  0  0  0  0  0  0  0  0  0  0  0
   10.6412   -3.5089   21.7936 C   0  0  0  0  0  0  0  0  0  0  0  0
   10.4972   -3.8968   24.1589 C   0  0  0  0  0  0  0  0  0  0  0  0
    5.9260   -8.2736   16.5517 C   0  0  0  0  0  0  0  0  0  0  0  0
    3.8816   -9.1166   17.2493 C   0  0  0  0  0  0  0  0  0  0  0  0
   10.1297   -1.6575   23.2324 C   0  0  0  0  0  0  0  0  0  0  0  0
    9.4684   -1.6929   26.7263 F   0  0  0  0  0  0  0  0  0  0  0  0
    7.7963   -7.7906   17.9837 C   0  0  0  0  0  0  0  0  0  0  0  0
   10.5884   -3.0725   16.7902 O   0  0  0  0  0  0  0  0  0  0  0  0
   10.4323   -5.3494   20.3516 C   0  0  0  0  0  0  0  0  0  0  0  0
    7.1156   -7.5454   16.8218 C   0  0  0  0  0  0  0  0  0  0  0  0
   10.3885   -4.4388   19.2773 C   0  0  0  0  0  0  0  0  0  0  0  0
    4.5160   -9.3822   15.0841 C   0  0  0  0  0  0  0  0  0  0  0  0
  1  3  4  0
  1 24  4  0
  2  6  4  0
  2 15  4  0
  3  5  4  0
  3  6  4  0
  4 21  4  0
  4 29  4  0
  5 15  4  0
  5 28  1  0
  6 16  4  0
  7 18  4  0
  7 26  4  0
  8 18  1  0
  8 19  4  0
  8 22  4  0
  9 12  4  0
  9 19  4  0
 10 12  4  0
 10 22  4  0
 11 20  4  0
 11 21  4  0
 12 23  1  0
 13 20  4  0
 13 29  4  0
 14 17  4  0
 14 28  4  0
 15 25  2  0
 16 27  4  0
 17 18  4  0
 20 27  1  0
 24 27  4  0
 26 28  4  0
M  END
$$$$

 Created by Python create_sdf_string function

 29 33  0  0  0  0  0  0  0  0999 V2000
    8.8270   -7.0288   18.4251 C   0  0  0  0  0  0  0  0  0  0  0  0
    9.1576   -4.6236   15.8860 O   0  0  0  0  0  0  0  0  0  0  0  0
    9.1509   -5.9108   17.7177 C   0  0  0  0  0  0  0  0  0  0  0  0
    3.6373   -9.5349   16.0582 N   0  0  0  0  0  0  0  0  0  0  0  0
    9.9275   -4.8001   18.0438 N   0  0  0  0  0  0  0  0  0  0  0  0
    8.5908   -5.7425   16.4412 C   0  0  0  0  0  0  0  0  0  0  0  0
   10.5993   -4.8981   21.6068 C   0  0  0  0  0  0  0  0  0  0  0  0
   10.4258   -3.0106   23.0998 C   0  0  0  0  0  0  0  0  0  0  0  0
   10.2148   -3.4364   25.4200 C   0  0  0  0  0  0  0  0  0  0  0  0
    9.7853   -1.1840   24.4927 C   0  0  0  0  0  0  0  0  0  0  0  0
    5.0276   -8.5227   17.5352 C   0  0  0  0  0  0  0  0  0  0  0  0
    9.8187   -2.0895   25.5800 C   0  0  0  0  0  0  0  0  0  0  0  0
    5.6473   -8.7216   15.3158 C   0  0  0  0  0  0  0  0  0  0  0  0
   10.7581   -3.1233   19.4720 N   0  0  0  0  0  0  0  0  0  0  0  0
    9.9571   -4.0573   16.8866 C   0  0  0  0  0  0  0  0  0  0  0  0
    7.6213   -6.5618   16.0087 C   0  0  0  0  0  0  0  0  0  0  0  0
   10.8583   -2.6527   20.7222 C   0  0  0  0  0  0  0  0  0  0  0  0
   10.6412   -3.5089   21.7936 C   0  0  0  0  0  0  0  0  0  0  0  0
   10.4972   -3.8968   24.1589 C   0  0  0  0  0  0  0  0  0  0  0  0
    5.9260   -8.2736   16.5517 C   0  0  0  0  0  0  0  0  0  0  0  0
    3.8816   -9.1166   17.2493 C   0  0  0  0  0  0  0  0  0  0  0  0
   10.1297   -1.6575   23.2324 C   0  0  0  0  0  0  0  0  0  0  0  0
    9.4684   -1.6929   26.7263 F   0  0  0  0  0  0  0  0  0  0  0  0
    7.7963   -7.7906   17.9837 C   0  0  0  0  0  0  0  0  0  0  0  0
   10.5884   -3.0725   16.7902 O   0  0  0  0  0  0  0  0  0  0  0  0
   10.4323   -5.3494   20.3516 C   0  0  0  0  0  0  0  0  0  0  0  0
    7.1156   -7.5454   16.8218 C   0  0  0  0  0  0  0  0  0  0  0  0
   10.3885   -4.4388   19.2773 C   0  0  0  0  0  0  0  0  0  0  0  0
    4.5160   -9.3822   15.0841 C   0  0  0  0  0  0  0  0  0  0  0  0
  1  3  4  0
  1 24  4  0
  2  6  4  0
  2 15  4  0
  3  5  4  0
  3  6  4  0
  4 21  4  0
  4 29  4  0
  5 15  4  0
  5 28  1  0
  6 16  4  0
  7 18  4  0
  7 26  4  0
  8 18  1  0
  8 19  4  0
  8 22  4  0
  9 12  4  0
  9 19  4  0
 10 12  4  0
 10 22  4  0
 11 20  4  0
 11 21  4  0
 12 23  1  0
 13 20  4  0
 13 29  4  0
 14 17  4  0
 14 28  4  0
 15 25  2  0
 16 27  4  0
 17 18  4  0
 20 27  1  0
 24 27  4  0
 26 28  4  0
M  END
$$$$

 Created by Python create_sdf_string function

 29 33  0  0  0  0  0  0  0  0999 V2000
    8.8270   -7.0288   18.4251 C   0  0  0  0  0  0  0  0  0  0  0  0
    9.1576   -4.6236   15.8860 O   0  0  0  0  0  0  0  0  0  0  0  0
    9.1509   -5.9108   17.7177 C   0  0  0  0  0  0  0  0  0  0  0  0
    3.6373   -9.5349   16.0582 N   0  0  0  0  0  0  0  0  0  0  0  0
    9.9275   -4.8001   18.0438 N   0  0  0  0  0  0  0  0  0  0  0  0
    8.5908   -5.7425   16.4412 C   0  0  0  0  0  0  0  0  0  0  0  0
   10.5993   -4.8981   21.6068 C   0  0  0  0  0  0  0  0  0  0  0  0
   10.4258   -3.0106   23.0998 C   0  0  0  0  0  0  0  0  0  0  0  0
   10.2148   -3.4364   25.4200 C   0  0  0  0  0  0  0  0  0  0  0  0
    9.7853   -1.1840   24.4927 C   0  0  0  0  0  0  0  0  0  0  0  0
    5.0276   -8.5227   17.5352 C   0  0  0  0  0  0  0  0  0  0  0  0
    9.8187   -2.0895   25.5800 C   0  0  0  0  0  0  0  0  0  0  0  0
    5.6473   -8.7216   15.3158 C   0  0  0  0  0  0  0  0  0  0  0  0
   10.7581   -3.1233   19.4720 N   0  0  0  0  0  0  0  0  0  0  0  0
    9.9571   -4.0573   16.8866 C   0  0  0  0  0  0  0  0  0  0  0  0
    7.6213   -6.5618   16.0087 C   0  0  0  0  0  0  0  0  0  0  0  0
   10.8583   -2.6527   20.7222 C   0  0  0  0  0  0  0  0  0  0  0  0
   10.6412   -3.5089   21.7936 C   0  0  0  0  0  0  0  0  0  0  0  0
   10.4972   -3.8968   24.1589 C   0  0  0  0  0  0  0  0  0  0  0  0
    5.9260   -8.2736   16.5517 C   0  0  0  0  0  0  0  0  0  0  0  0
    3.8816   -9.1166   17.2493 C   0  0  0  0  0  0  0  0  0  0  0  0
   10.1297   -1.6575   23.2324 C   0  0  0  0  0  0  0  0  0  0  0  0
    9.4684   -1.6929   26.7263 F   0  0  0  0  0  0  0  0  0  0  0  0
    7.7963   -7.7906   17.9837 C   0  0  0  0  0  0  0  0  0  0  0  0
   10.5884   -3.0725   16.7902 O   0  0  0  0  0  0  0  0  0  0  0  0
   10.4323   -5.3494   20.3516 C   0  0  0  0  0  0  0  0  0  0  0  0
    7.1156   -7.5454   16.8218 C   0  0  0  0  0  0  0  0  0  0  0  0
   10.3885   -4.4388   19.2773 C   0  0  0  0  0  0  0  0  0  0  0  0
    4.5160   -9.3822   15.0841 C   0  0  0  0  0  0  0  0  0  0  0  0
  1  3  4  0
  1 24  4  0
  2  6  4  0
  2 15  4  0
  3  5  4  0
  3  6  4  0
  4 21  4  0
  4 29  4  0
  5 15  4  0
  5 28  1  0
  6 16  4  0
  7 18  4  0
  7 26  4  0
  8 18  1  0
  8 19  4  0
  8 22  4  0
  9 12  4  0
  9 19  4  0
 10 12  4  0
 10 22  4  0
 11 20  4  0
 11 21  4  0
 12 23  1  0
 13 20  4  0
 13 29  4  0
 14 17  4  0
 14 28  4  0
 15 25  2  0
 16 27  4  0
 17 18  4  0
 20 27  1  0
 24 27  4  0
 26 28  4  0
M  END
$$$$

 Created by Python create_sdf_string function

 29 33  0  0  0  0  0  0  0  0999 V2000
    8.8270   -7.0288   18.4251 C   0  0  0  0  0  0  0  0  0  0  0  0
    9.1576   -4.6236   15.8860 O   0  0  0  0  0  0  0  0  0  0  0  0
    9.1509   -5.9108   17.7177 C   0  0  0  0  0  0  0  0  0  0  0  0
    3.6373   -9.5349   16.0582 N   0  0  0  0  0  0  0  0  0  0  0  0
    9.9275   -4.8001   18.0438 N   0  0  0  0  0  0  0  0  0  0  0  0
    8.5908   -5.7425   16.4412 C   0  0  0  0  0  0  0  0  0  0  0  0
   10.5993   -4.8981   21.6068 C   0  0  0  0  0  0  0  0  0  0  0  0
   10.4258   -3.0106   23.0998 C   0  0  0  0  0  0  0  0  0  0  0  0
   10.2148   -3.4364   25.4200 C   0  0  0  0  0  0  0  0  0  0  0  0
    9.7853   -1.1840   24.4927 C   0  0  0  0  0  0  0  0  0  0  0  0
    5.0276   -8.5227   17.5352 C   0  0  0  0  0  0  0  0  0  0  0  0
    9.8187   -2.0895   25.5800 C   0  0  0  0  0  0  0  0  0  0  0  0
    5.6473   -8.7216   15.3158 C   0  0  0  0  0  0  0  0  0  0  0  0
   10.7581   -3.1233   19.4720 N   0  0  0  0  0  0  0  0  0  0  0  0
    9.9571   -4.0573   16.8866 C   0  0  0  0  0  0  0  0  0  0  0  0
    7.6213   -6.5618   16.0087 C   0  0  0  0  0  0  0  0  0  0  0  0
   10.8583   -2.6527   20.7222 C   0  0  0  0  0  0  0  0  0  0  0  0
   10.6412   -3.5089   21.7936 C   0  0  0  0  0  0  0  0  0  0  0  0
   10.4972   -3.8968   24.1589 C   0  0  0  0  0  0  0  0  0  0  0  0
    5.9260   -8.2736   16.5517 C   0  0  0  0  0  0  0  0  0  0  0  0
    3.8816   -9.1166   17.2493 C   0  0  0  0  0  0  0  0  0  0  0  0
   10.1297   -1.6575   23.2324 C   0  0  0  0  0  0  0  0  0  0  0  0
    9.4684   -1.6929   26.7263 F   0  0  0  0  0  0  0  0  0  0  0  0
    7.7963   -7.7906   17.9837 C   0  0  0  0  0  0  0  0  0  0  0  0
   10.5884   -3.0725   16.7902 O   0  0  0  0  0  0  0  0  0  0  0  0
   10.4323   -5.3494   20.3516 C   0  0  0  0  0  0  0  0  0  0  0  0
    7.1156   -7.5454   16.8218 C   0  0  0  0  0  0  0  0  0  0  0  0
   10.3885   -4.4388   19.2773 C   0  0  0  0  0  0  0  0  0  0  0  0
    4.5160   -9.3822   15.0841 C   0  0  0  0  0  0  0  0  0  0  0  0
  1  3  4  0
  1 24  4  0
  2  6  4  0
  2 15  4  0
  3  5  4  0
  3  6  4  0
  4 21  4  0
  4 29  4  0
  5 15  4  0
  5 28  1  0
  6 16  4  0
  7 18  4  0
  7 26  4  0
  8 18  1  0
  8 19  4  0
  8 22  4  0
  9 12  4  0
  9 19  4  0
 10 12  4  0
 10 22  4  0
 11 20  4  0
 11 21  4  0
 12 23  1  0
 13 20  4  0
 13 29  4  0
 14 17  4  0
 14 28  4  0
 15 25  2  0
 16 27  4  0
 17 18  4  0
 20 27  1  0
 24 27  4  0
 26 28  4  0
M  END
$$$$

 Created by Python create_sdf_string function

 29 33  0  0  0  0  0  0  0  0999 V2000
    8.8270   -7.0288   18.4251 C   0  0  0  0  0  0  0  0  0  0  0  0
    9.1576   -4.6236   15.8860 O   0  0  0  0  0  0  0  0  0  0  0  0
    9.1509   -5.9108   17.7177 C   0  0  0  0  0  0  0  0  0  0  0  0
    3.6373   -9.5349   16.0582 N   0  0  0  0  0  0  0  0  0  0  0  0
    9.9275   -4.8001   18.0438 N   0  0  0  0  0  0  0  0  0  0  0  0
    8.5908   -5.7425   16.4412 C   0  0  0  0  0  0  0  0  0  0  0  0
   10.5993   -4.8981   21.6068 C   0  0  0  0  0  0  0  0  0  0  0  0
   10.4258   -3.0106   23.0998 C   0  0  0  0  0  0  0  0  0  0  0  0
   10.2148   -3.4364   25.4200 C   0  0  0  0  0  0  0  0  0  0  0  0
    9.7853   -1.1840   24.4927 C   0  0  0  0  0  0  0  0  0  0  0  0
    5.0276   -8.5227   17.5352 C   0  0  0  0  0  0  0  0  0  0  0  0
    9.8187   -2.0895   25.5800 C   0  0  0  0  0  0  0  0  0  0  0  0
    5.6473   -8.7216   15.3158 C   0  0  0  0  0  0  0  0  0  0  0  0
   10.7581   -3.1233   19.4720 N   0  0  0  0  0  0  0  0  0  0  0  0
    9.9571   -4.0573   16.8866 C   0  0  0  0  0  0  0  0  0  0  0  0
    7.6213   -6.5618   16.0087 C   0  0  0  0  0  0  0  0  0  0  0  0
   10.8583   -2.6527   20.7222 C   0  0  0  0  0  0  0  0  0  0  0  0
   10.6412   -3.5089   21.7936 C   0  0  0  0  0  0  0  0  0  0  0  0
   10.4972   -3.8968   24.1589 C   0  0  0  0  0  0  0  0  0  0  0  0
    5.9260   -8.2736   16.5517 C   0  0  0  0  0  0  0  0  0  0  0  0
    3.8816   -9.1166   17.2493 C   0  0  0  0  0  0  0  0  0  0  0  0
   10.1297   -1.6575   23.2324 C   0  0  0  0  0  0  0  0  0  0  0  0
    9.4684   -1.6929   26.7263 F   0  0  0  0  0  0  0  0  0  0  0  0
    7.7963   -7.7906   17.9837 C   0  0  0  0  0  0  0  0  0  0  0  0
   10.5884   -3.0725   16.7902 O   0  0  0  0  0  0  0  0  0  0  0  0
   10.4323   -5.3494   20.3516 C   0  0  0  0  0  0  0  0  0  0  0  0
    7.1156   -7.5454   16.8218 C   0  0  0  0  0  0  0  0  0  0  0  0
   10.3885   -4.4388   19.2773 C   0  0  0  0  0  0  0  0  0  0  0  0
    4.5160   -9.3822   15.0841 C   0  0  0  0  0  0  0  0  0  0  0  0
  1  3  4  0
  1 24  4  0
  2  6  4  0
  2 15  4  0
  3  5  4  0
  3  6  4  0
  4 21  4  0
  4 29  4  0
  5 15  4  0
  5 28  1  0
  6 16  4  0
  7 18  4  0
  7 26  4  0
  8 18  1  0
  8 19  4  0
  8 22  4  0
  9 12  4  0
  9 19  4  0
 10 12  4  0
 10 22  4  0
 11 20  4  0
 11 21  4  0
 12 23  1  0
 13 20  4  0
 13 29  4  0
 14 17  4  0
 14 28  4  0
 15 25  2  0
 16 27  4  0
 17 18  4  0
 20 27  1  0
 24 27  4  0
 26 28  4  0
M  END
$$$$

 Created by Python create_sdf_string function

 29 33  0  0  0  0  0  0  0  0999 V2000
    8.8270   -7.0288   18.4251 C   0  0  0  0  0  0  0  0  0  0  0  0
    9.1576   -4.6236   15.8860 O   0  0  0  0  0  0  0  0  0  0  0  0
    9.1509   -5.9108   17.7177 C   0  0  0  0  0  0  0  0  0  0  0  0
    3.6373   -9.5349   16.0582 N   0  0  0  0  0  0  0  0  0  0  0  0
    9.9275   -4.8001   18.0438 N   0  0  0  0  0  0  0  0  0  0  0  0
    8.5908   -5.7425   16.4412 C   0  0  0  0  0  0  0  0  0  0  0  0
   10.5993   -4.8981   21.6068 C   0  0  0  0  0  0  0  0  0  0  0  0
   10.4258   -3.0106   23.0998 C   0  0  0  0  0  0  0  0  0  0  0  0
   10.2148   -3.4364   25.4200 C   0  0  0  0  0  0  0  0  0  0  0  0
    9.7853   -1.1840   24.4927 C   0  0  0  0  0  0  0  0  0  0  0  0
    5.0276   -8.5227   17.5352 C   0  0  0  0  0  0  0  0  0  0  0  0
    9.8187   -2.0895   25.5800 C   0  0  0  0  0  0  0  0  0  0  0  0
    5.6473   -8.7216   15.3158 C   0  0  0  0  0  0  0  0  0  0  0  0
   10.7581   -3.1233   19.4720 N   0  0  0  0  0  0  0  0  0  0  0  0
    9.9571   -4.0573   16.8866 C   0  0  0  0  0  0  0  0  0  0  0  0
    7.6213   -6.5618   16.0087 C   0  0  0  0  0  0  0  0  0  0  0  0
   10.8583   -2.6527   20.7222 C   0  0  0  0  0  0  0  0  0  0  0  0
   10.6412   -3.5089   21.7936 C   0  0  0  0  0  0  0  0  0  0  0  0
   10.4972   -3.8968   24.1589 C   0  0  0  0  0  0  0  0  0  0  0  0
    5.9260   -8.2736   16.5517 C   0  0  0  0  0  0  0  0  0  0  0  0
    3.8816   -9.1166   17.2493 C   0  0  0  0  0  0  0  0  0  0  0  0
   10.1297   -1.6575   23.2324 C   0  0  0  0  0  0  0  0  0  0  0  0
    9.4684   -1.6929   26.7263 F   0  0  0  0  0  0  0  0  0  0  0  0
    7.7963   -7.7906   17.9837 C   0  0  0  0  0  0  0  0  0  0  0  0
   10.5884   -3.0725   16.7902 O   0  0  0  0  0  0  0  0  0  0  0  0
   10.4323   -5.3494   20.3516 C   0  0  0  0  0  0  0  0  0  0  0  0
    7.1156   -7.5454   16.8218 C   0  0  0  0  0  0  0  0  0  0  0  0
   10.3885   -4.4388   19.2773 C   0  0  0  0  0  0  0  0  0  0  0  0
    4.5160   -9.3822   15.0841 C   0  0  0  0  0  0  0  0  0  0  0  0
  1  3  4  0
  1 24  4  0
  2  6  4  0
  2 15  4  0
  3  5  4  0
  3  6  4  0
  4 21  4  0
  4 29  4  0
  5 15  4  0
  5 28  1  0
  6 16  4  0
  7 18  4  0
  7 26  4  0
  8 18  1  0
  8 19  4  0
  8 22  4  0
  9 12  4  0
  9 19  4  0
 10 12  4  0
 10 22  4  0
 11 20  4  0
 11 21  4  0
 12 23  1  0
 13 20  4  0
 13 29  4  0
 14 17  4  0
 14 28  4  0
 15 25  2  0
 16 27  4  0
 17 18  4  0
 20 27  1  0
 24 27  4  0
 26 28  4  0
M  END
$$$$

 Created by Python create_sdf_string function

 29 33  0  0  0  0  0  0  0  0999 V2000
    8.8270   -7.0288   18.4251 C   0  0  0  0  0  0  0  0  0  0  0  0
    9.1576   -4.6236   15.8860 O   0  0  0  0  0  0  0  0  0  0  0  0
    9.1509   -5.9108   17.7177 C   0  0  0  0  0  0  0  0  0  0  0  0
    3.6373   -9.5349   16.0582 N   0  0  0  0  0  0  0  0  0  0  0  0
    9.9275   -4.8001   18.0438 N   0  0  0  0  0  0  0  0  0  0  0  0
    8.5908   -5.7425   16.4412 C   0  0  0  0  0  0  0  0  0  0  0  0
   10.5993   -4.8981   21.6068 C   0  0  0  0  0  0  0  0  0  0  0  0
   10.4258   -3.0106   23.0998 C   0  0  0  0  0  0  0  0  0  0  0  0
   10.2148   -3.4364   25.4200 C   0  0  0  0  0  0  0  0  0  0  0  0
    9.7853   -1.1840   24.4927 C   0  0  0  0  0  0  0  0  0  0  0  0
    5.0276   -8.5227   17.5352 C   0  0  0  0  0  0  0  0  0  0  0  0
    9.8187   -2.0895   25.5800 C   0  0  0  0  0  0  0  0  0  0  0  0
    5.6473   -8.7216   15.3158 C   0  0  0  0  0  0  0  0  0  0  0  0
   10.7581   -3.1233   19.4720 N   0  0  0  0  0  0  0  0  0  0  0  0
    9.9571   -4.0573   16.8866 C   0  0  0  0  0  0  0  0  0  0  0  0
    7.6213   -6.5618   16.0087 C   0  0  0  0  0  0  0  0  0  0  0  0
   10.8583   -2.6527   20.7222 C   0  0  0  0  0  0  0  0  0  0  0  0
   10.6412   -3.5089   21.7936 C   0  0  0  0  0  0  0  0  0  0  0  0
   10.4972   -3.8968   24.1589 C   0  0  0  0  0  0  0  0  0  0  0  0
    5.9260   -8.2736   16.5517 C   0  0  0  0  0  0  0  0  0  0  0  0
    3.8816   -9.1166   17.2493 C   0  0  0  0  0  0  0  0  0  0  0  0
   10.1297   -1.6575   23.2324 C   0  0  0  0  0  0  0  0  0  0  0  0
    9.4684   -1.6929   26.7263 F   0  0  0  0  0  0  0  0  0  0  0  0
    7.7963   -7.7906   17.9837 C   0  0  0  0  0  0  0  0  0  0  0  0
   10.5884   -3.0725   16.7902 O   0  0  0  0  0  0  0  0  0  0  0  0
   10.4323   -5.3494   20.3516 C   0  0  0  0  0  0  0  0  0  0  0  0
    7.1156   -7.5454   16.8218 C   0  0  0  0  0  0  0  0  0  0  0  0
   10.3885   -4.4388   19.2773 C   0  0  0  0  0  0  0  0  0  0  0  0
    4.5160   -9.3822   15.0841 C   0  0  0  0  0  0  0  0  0  0  0  0
  1  3  4  0
  1 24  4  0
  2  6  4  0
  2 15  4  0
  3  5  4  0
  3  6  4  0
  4 21  4  0
  4 29  4  0
  5 15  4  0
  5 28  1  0
  6 16  4  0
  7 18  4  0
  7 26  4  0
  8 18  1  0
  8 19  4  0
  8 22  4  0
  9 12  4  0
  9 19  4  0
 10 12  4  0
 10 22  4  0
 11 20  4  0
 11 21  4  0
 12 23  1  0
 13 20  4  0
 13 29  4  0
 14 17  4  0
 14 28  4  0
 15 25  2  0
 16 27  4  0
 17 18  4  0
 20 27  1  0
 24 27  4  0
 26 28  4  0
M  END
$$$$

 Created by Python create_sdf_string function

 29 33  0  0  0  0  0  0  0  0999 V2000
    8.8270   -7.0288   18.4251 C   0  0  0  0  0  0  0  0  0  0  0  0
    9.1576   -4.6236   15.8860 O   0  0  0  0  0  0  0  0  0  0  0  0
    9.1509   -5.9108   17.7177 C   0  0  0  0  0  0  0  0  0  0  0  0
    3.6373   -9.5349   16.0582 N   0  0  0  0  0  0  0  0  0  0  0  0
    9.9275   -4.8001   18.0438 N   0  0  0  0  0  0  0  0  0  0  0  0
    8.5908   -5.7425   16.4412 C   0  0  0  0  0  0  0  0  0  0  0  0
   10.5993   -4.8981   21.6068 C   0  0  0  0  0  0  0  0  0  0  0  0
   10.4258   -3.0106   23.0998 C   0  0  0  0  0  0  0  0  0  0  0  0
   10.2148   -3.4364   25.4200 C   0  0  0  0  0  0  0  0  0  0  0  0
    9.7853   -1.1840   24.4927 C   0  0  0  0  0  0  0  0  0  0  0  0
    5.0276   -8.5227   17.5352 C   0  0  0  0  0  0  0  0  0  0  0  0
    9.8187   -2.0895   25.5800 C   0  0  0  0  0  0  0  0  0  0  0  0
    5.6473   -8.7216   15.3158 C   0  0  0  0  0  0  0  0  0  0  0  0
   10.7581   -3.1233   19.4720 N   0  0  0  0  0  0  0  0  0  0  0  0
    9.9571   -4.0573   16.8866 C   0  0  0  0  0  0  0  0  0  0  0  0
    7.6213   -6.5618   16.0087 C   0  0  0  0  0  0  0  0  0  0  0  0
   10.8583   -2.6527   20.7222 C   0  0  0  0  0  0  0  0  0  0  0  0
   10.6412   -3.5089   21.7936 C   0  0  0  0  0  0  0  0  0  0  0  0
   10.4972   -3.8968   24.1589 C   0  0  0  0  0  0  0  0  0  0  0  0
    5.9260   -8.2736   16.5517 C   0  0  0  0  0  0  0  0  0  0  0  0
    3.8816   -9.1166   17.2493 C   0  0  0  0  0  0  0  0  0  0  0  0
   10.1297   -1.6575   23.2324 C   0  0  0  0  0  0  0  0  0  0  0  0
    9.4684   -1.6929   26.7263 F   0  0  0  0  0  0  0  0  0  0  0  0
    7.7963   -7.7906   17.9837 C   0  0  0  0  0  0  0  0  0  0  0  0
   10.5884   -3.0725   16.7902 O   0  0  0  0  0  0  0  0  0  0  0  0
   10.4323   -5.3494   20.3516 C   0  0  0  0  0  0  0  0  0  0  0  0
    7.1156   -7.5454   16.8218 C   0  0  0  0  0  0  0  0  0  0  0  0
   10.3885   -4.4388   19.2773 C   0  0  0  0  0  0  0  0  0  0  0  0
    4.5160   -9.3822   15.0841 C   0  0  0  0  0  0  0  0  0  0  0  0
  1  3  4  0
  1 24  4  0
  2  6  4  0
  2 15  4  0
  3  5  4  0
  3  6  4  0
  4 21  4  0
  4 29  4  0
  5 15  4  0
  5 28  1  0
  6 16  4  0
  7 18  4  0
  7 26  4  0
  8 18  1  0
  8 19  4  0
  8 22  4  0
  9 12  4  0
  9 19  4  0
 10 12  4  0
 10 22  4  0
 11 20  4  0
 11 21  4  0
 12 23  1  0
 13 20  4  0
 13 29  4  0
 14 17  4  0
 14 28  4  0
 15 25  2  0
 16 27  4  0
 17 18  4  0
 20 27  1  0
 24 27  4  0
 26 28  4  0
M  END
$$$$

 Created by Python create_sdf_string function

 29 33  0  0  0  0  0  0  0  0999 V2000
    8.8270   -7.0288   18.4251 C   0  0  0  0  0  0  0  0  0  0  0  0
    9.1576   -4.6236   15.8860 O   0  0  0  0  0  0  0  0  0  0  0  0
    9.1509   -5.9108   17.7177 C   0  0  0  0  0  0  0  0  0  0  0  0
    3.6373   -9.5349   16.0582 N   0  0  0  0  0  0  0  0  0  0  0  0
    9.9275   -4.8001   18.0438 N   0  0  0  0  0  0  0  0  0  0  0  0
    8.5908   -5.7425   16.4412 C   0  0  0  0  0  0  0  0  0  0  0  0
   10.5993   -4.8981   21.6068 C   0  0  0  0  0  0  0  0  0  0  0  0
   10.4258   -3.0106   23.0998 C   0  0  0  0  0  0  0  0  0  0  0  0
   10.2148   -3.4364   25.4200 C   0  0  0  0  0  0  0  0  0  0  0  0
    9.7853   -1.1840   24.4927 C   0  0  0  0  0  0  0  0  0  0  0  0
    5.0276   -8.5227   17.5352 C   0  0  0  0  0  0  0  0  0  0  0  0
    9.8187   -2.0895   25.5800 C   0  0  0  0  0  0  0  0  0  0  0  0
    5.6473   -8.7216   15.3158 C   0  0  0  0  0  0  0  0  0  0  0  0
   10.7581   -3.1233   19.4720 N   0  0  0  0  0  0  0  0  0  0  0  0
    9.9571   -4.0573   16.8866 C   0  0  0  0  0  0  0  0  0  0  0  0
    7.6213   -6.5618   16.0087 C   0  0  0  0  0  0  0  0  0  0  0  0
   10.8583   -2.6527   20.7222 C   0  0  0  0  0  0  0  0  0  0  0  0
   10.6412   -3.5089   21.7936 C   0  0  0  0  0  0  0  0  0  0  0  0
   10.4972   -3.8968   24.1589 C   0  0  0  0  0  0  0  0  0  0  0  0
    5.9260   -8.2736   16.5517 C   0  0  0  0  0  0  0  0  0  0  0  0
    3.8816   -9.1166   17.2493 C   0  0  0  0  0  0  0  0  0  0  0  0
   10.1297   -1.6575   23.2324 C   0  0  0  0  0  0  0  0  0  0  0  0
    9.4684   -1.6929   26.7263 F   0  0  0  0  0  0  0  0  0  0  0  0
    7.7963   -7.7906   17.9837 C   0  0  0  0  0  0  0  0  0  0  0  0
   10.5884   -3.0725   16.7902 O   0  0  0  0  0  0  0  0  0  0  0  0
   10.4323   -5.3494   20.3516 C   0  0  0  0  0  0  0  0  0  0  0  0
    7.1156   -7.5454   16.8218 C   0  0  0  0  0  0  0  0  0  0  0  0
   10.3885   -4.4388   19.2773 C   0  0  0  0  0  0  0  0  0  0  0  0
    4.5160   -9.3822   15.0841 C   0  0  0  0  0  0  0  0  0  0  0  0
  1  3  4  0
  1 24  4  0
  2  6  4  0
  2 15  4  0
  3  5  4  0
  3  6  4  0
  4 21  4  0
  4 29  4  0
  5 15  4  0
  5 28  1  0
  6 16  4  0
  7 18  4  0
  7 26  4  0
  8 18  1  0
  8 19  4  0
  8 22  4  0
  9 12  4  0
  9 19  4  0
 10 12  4  0
 10 22  4  0
 11 20  4  0
 11 21  4  0
 12 23  1  0
 13 20  4  0
 13 29  4  0
 14 17  4  0
 14 28  4  0
 15 25  2  0
 16 27  4  0
 17 18  4  0
 20 27  1  0
 24 27  4  0
 26 28  4  0
M  END
$$$$

 Created by Python create_sdf_string function

 29 33  0  0  0  0  0  0  0  0999 V2000
    8.8270   -7.0288   18.4251 C   0  0  0  0  0  0  0  0  0  0  0  0
    9.1576   -4.6236   15.8860 O   0  0  0  0  0  0  0  0  0  0  0  0
    9.1509   -5.9108   17.7177 C   0  0  0  0  0  0  0  0  0  0  0  0
    3.6373   -9.5349   16.0582 N   0  0  0  0  0  0  0  0  0  0  0  0
    9.9275   -4.8001   18.0438 N   0  0  0  0  0  0  0  0  0  0  0  0
    8.5908   -5.7425   16.4412 C   0  0  0  0  0  0  0  0  0  0  0  0
   10.5993   -4.8981   21.6068 C   0  0  0  0  0  0  0  0  0  0  0  0
   10.4258   -3.0106   23.0998 C   0  0  0  0  0  0  0  0  0  0  0  0
   10.2148   -3.4364   25.4200 C   0  0  0  0  0  0  0  0  0  0  0  0
    9.7853   -1.1840   24.4927 C   0  0  0  0  0  0  0  0  0  0  0  0
    5.0276   -8.5227   17.5352 C   0  0  0  0  0  0  0  0  0  0  0  0
    9.8187   -2.0895   25.5800 C   0  0  0  0  0  0  0  0  0  0  0  0
    5.6473   -8.7216   15.3158 C   0  0  0  0  0  0  0  0  0  0  0  0
   10.7581   -3.1233   19.4720 N   0  0  0  0  0  0  0  0  0  0  0  0
    9.9571   -4.0573   16.8866 C   0  0  0  0  0  0  0  0  0  0  0  0
    7.6213   -6.5618   16.0087 C   0  0  0  0  0  0  0  0  0  0  0  0
   10.8583   -2.6527   20.7222 C   0  0  0  0  0  0  0  0  0  0  0  0
   10.6412   -3.5089   21.7936 C   0  0  0  0  0  0  0  0  0  0  0  0
   10.4972   -3.8968   24.1589 C   0  0  0  0  0  0  0  0  0  0  0  0
    5.9260   -8.2736   16.5517 C   0  0  0  0  0  0  0  0  0  0  0  0
    3.8816   -9.1166   17.2493 C   0  0  0  0  0  0  0  0  0  0  0  0
   10.1297   -1.6575   23.2324 C   0  0  0  0  0  0  0  0  0  0  0  0
    9.4684   -1.6929   26.7263 F   0  0  0  0  0  0  0  0  0  0  0  0
    7.7963   -7.7906   17.9837 C   0  0  0  0  0  0  0  0  0  0  0  0
   10.5884   -3.0725   16.7902 O   0  0  0  0  0  0  0  0  0  0  0  0
   10.4323   -5.3494   20.3516 C   0  0  0  0  0  0  0  0  0  0  0  0
    7.1156   -7.5454   16.8218 C   0  0  0  0  0  0  0  0  0  0  0  0
   10.3885   -4.4388   19.2773 C   0  0  0  0  0  0  0  0  0  0  0  0
    4.5160   -9.3822   15.0841 C   0  0  0  0  0  0  0  0  0  0  0  0
  1  3  4  0
  1 24  4  0
  2  6  4  0
  2 15  4  0
  3  5  4  0
  3  6  4  0
  4 21  4  0
  4 29  4  0
  5 15  4  0
  5 28  1  0
  6 16  4  0
  7 18  4  0
  7 26  4  0
  8 18  1  0
  8 19  4  0
  8 22  4  0
  9 12  4  0
  9 19  4  0
 10 12  4  0
 10 22  4  0
 11 20  4  0
 11 21  4  0
 12 23  1  0
 13 20  4  0
 13 29  4  0
 14 17  4  0
 14 28  4  0
 15 25  2  0
 16 27  4  0
 17 18  4  0
 20 27  1  0
 24 27  4  0
 26 28  4  0
M  END
$$$$

 Created by Python create_sdf_string function

 29 33  0  0  0  0  0  0  0  0999 V2000
    8.8270   -7.0288   18.4251 C   0  0  0  0  0  0  0  0  0  0  0  0
    9.1576   -4.6236   15.8860 O   0  0  0  0  0  0  0  0  0  0  0  0
    9.1509   -5.9108   17.7177 C   0  0  0  0  0  0  0  0  0  0  0  0
    3.6373   -9.5349   16.0582 N   0  0  0  0  0  0  0  0  0  0  0  0
    9.9275   -4.8001   18.0438 N   0  0  0  0  0  0  0  0  0  0  0  0
    8.5908   -5.7425   16.4412 C   0  0  0  0  0  0  0  0  0  0  0  0
   10.5993   -4.8981   21.6068 C   0  0  0  0  0  0  0  0  0  0  0  0
   10.4258   -3.0106   23.0998 C   0  0  0  0  0  0  0  0  0  0  0  0
   10.2148   -3.4364   25.4200 C   0  0  0  0  0  0  0  0  0  0  0  0
    9.7853   -1.1840   24.4927 C   0  0  0  0  0  0  0  0  0  0  0  0
    5.0276   -8.5227   17.5352 C   0  0  0  0  0  0  0  0  0  0  0  0
    9.8187   -2.0895   25.5800 C   0  0  0  0  0  0  0  0  0  0  0  0
    5.6473   -8.7216   15.3158 C   0  0  0  0  0  0  0  0  0  0  0  0
   10.7581   -3.1233   19.4720 N   0  0  0  0  0  0  0  0  0  0  0  0
    9.9571   -4.0573   16.8866 C   0  0  0  0  0  0  0  0  0  0  0  0
    7.6213   -6.5618   16.0087 C   0  0  0  0  0  0  0  0  0  0  0  0
   10.8583   -2.6527   20.7222 C   0  0  0  0  0  0  0  0  0  0  0  0
   10.6412   -3.5089   21.7936 C   0  0  0  0  0  0  0  0  0  0  0  0
   10.4972   -3.8968   24.1589 C   0  0  0  0  0  0  0  0  0  0  0  0
    5.9260   -8.2736   16.5517 C   0  0  0  0  0  0  0  0  0  0  0  0
    3.8816   -9.1166   17.2493 C   0  0  0  0  0  0  0  0  0  0  0  0
   10.1297   -1.6575   23.2324 C   0  0  0  0  0  0  0  0  0  0  0  0
    9.4684   -1.6929   26.7263 F   0  0  0  0  0  0  0  0  0  0  0  0
    7.7963   -7.7906   17.9837 C   0  0  0  0  0  0  0  0  0  0  0  0
   10.5884   -3.0725   16.7902 O   0  0  0  0  0  0  0  0  0  0  0  0
   10.4323   -5.3494   20.3516 C   0  0  0  0  0  0  0  0  0  0  0  0
    7.1156   -7.5454   16.8218 C   0  0  0  0  0  0  0  0  0  0  0  0
   10.3885   -4.4388   19.2773 C   0  0  0  0  0  0  0  0  0  0  0  0
    4.5160   -9.3822   15.0841 C   0  0  0  0  0  0  0  0  0  0  0  0
  1  3  4  0
  1 24  4  0
  2  6  4  0
  2 15  4  0
  3  5  4  0
  3  6  4  0
  4 21  4  0
  4 29  4  0
  5 15  4  0
  5 28  1  0
  6 16  4  0
  7 18  4  0
  7 26  4  0
  8 18  1  0
  8 19  4  0
  8 22  4  0
  9 12  4  0
  9 19  4  0
 10 12  4  0
 10 22  4  0
 11 20  4  0
 11 21  4  0
 12 23  1  0
 13 20  4  0
 13 29  4  0
 14 17  4  0
 14 28  4  0
 15 25  2  0
 16 27  4  0
 17 18  4  0
 20 27  1  0
 24 27  4  0
 26 28  4  0
M  END
$$$$

 Created by Python create_sdf_string function

 29 33  0  0  0  0  0  0  0  0999 V2000
    8.8270   -7.0288   18.4251 C   0  0  0  0  0  0  0  0  0  0  0  0
    9.1576   -4.6236   15.8860 O   0  0  0  0  0  0  0  0  0  0  0  0
    9.1509   -5.9108   17.7177 C   0  0  0  0  0  0  0  0  0  0  0  0
    3.6373   -9.5349   16.0582 N   0  0  0  0  0  0  0  0  0  0  0  0
    9.9275   -4.8001   18.0438 N   0  0  0  0  0  0  0  0  0  0  0  0
    8.5908   -5.7425   16.4412 C   0  0  0  0  0  0  0  0  0  0  0  0
   10.5993   -4.8981   21.6068 C   0  0  0  0  0  0  0  0  0  0  0  0
   10.4258   -3.0106   23.0998 C   0  0  0  0  0  0  0  0  0  0  0  0
   10.2148   -3.4364   25.4200 C   0  0  0  0  0  0  0  0  0  0  0  0
    9.7853   -1.1840   24.4927 C   0  0  0  0  0  0  0  0  0  0  0  0
    5.0276   -8.5227   17.5352 C   0  0  0  0  0  0  0  0  0  0  0  0
    9.8187   -2.0895   25.5800 C   0  0  0  0  0  0  0  0  0  0  0  0
    5.6473   -8.7216   15.3158 C   0  0  0  0  0  0  0  0  0  0  0  0
   10.7581   -3.1233   19.4720 N   0  0  0  0  0  0  0  0  0  0  0  0
    9.9571   -4.0573   16.8866 C   0  0  0  0  0  0  0  0  0  0  0  0
    7.6213   -6.5618   16.0087 C   0  0  0  0  0  0  0  0  0  0  0  0
   10.8583   -2.6527   20.7222 C   0  0  0  0  0  0  0  0  0  0  0  0
   10.6412   -3.5089   21.7936 C   0  0  0  0  0  0  0  0  0  0  0  0
   10.4972   -3.8968   24.1589 C   0  0  0  0  0  0  0  0  0  0  0  0
    5.9260   -8.2736   16.5517 C   0  0  0  0  0  0  0  0  0  0  0  0
    3.8816   -9.1166   17.2493 C   0  0  0  0  0  0  0  0  0  0  0  0
   10.1297   -1.6575   23.2324 C   0  0  0  0  0  0  0  0  0  0  0  0
    9.4684   -1.6929   26.7263 F   0  0  0  0  0  0  0  0  0  0  0  0
    7.7963   -7.7906   17.9837 C   0  0  0  0  0  0  0  0  0  0  0  0
   10.5884   -3.0725   16.7902 O   0  0  0  0  0  0  0  0  0  0  0  0
   10.4323   -5.3494   20.3516 C   0  0  0  0  0  0  0  0  0  0  0  0
    7.1156   -7.5454   16.8218 C   0  0  0  0  0  0  0  0  0  0  0  0
   10.3885   -4.4388   19.2773 C   0  0  0  0  0  0  0  0  0  0  0  0
    4.5160   -9.3822   15.0841 C   0  0  0  0  0  0  0  0  0  0  0  0
  1  3  4  0
  1 24  4  0
  2  6  4  0
  2 15  4  0
  3  5  4  0
  3  6  4  0
  4 21  4  0
  4 29  4  0
  5 15  4  0
  5 28  1  0
  6 16  4  0
  7 18  4  0
  7 26  4  0
  8 18  1  0
  8 19  4  0
  8 22  4  0
  9 12  4  0
  9 19  4  0
 10 12  4  0
 10 22  4  0
 11 20  4  0
 11 21  4  0
 12 23  1  0
 13 20  4  0
 13 29  4  0
 14 17  4  0
 14 28  4  0
 15 25  2  0
 16 27  4  0
 17 18  4  0
 20 27  1  0
 24 27  4  0
 26 28  4  0
M  END
$$$$

 Created by Python create_sdf_string function

 29 33  0  0  0  0  0  0  0  0999 V2000
    8.8270   -7.0288   18.4251 C   0  0  0  0  0  0  0  0  0  0  0  0
    9.1576   -4.6236   15.8860 O   0  0  0  0  0  0  0  0  0  0  0  0
    9.1509   -5.9108   17.7177 C   0  0  0  0  0  0  0  0  0  0  0  0
    3.6373   -9.5349   16.0582 N   0  0  0  0  0  0  0  0  0  0  0  0
    9.9275   -4.8001   18.0438 N   0  0  0  0  0  0  0  0  0  0  0  0
    8.5908   -5.7425   16.4412 C   0  0  0  0  0  0  0  0  0  0  0  0
   10.5993   -4.8981   21.6068 C   0  0  0  0  0  0  0  0  0  0  0  0
   10.4258   -3.0106   23.0998 C   0  0  0  0  0  0  0  0  0  0  0  0
   10.2148   -3.4364   25.4200 C   0  0  0  0  0  0  0  0  0  0  0  0
    9.7853   -1.1840   24.4927 C   0  0  0  0  0  0  0  0  0  0  0  0
    5.0276   -8.5227   17.5352 C   0  0  0  0  0  0  0  0  0  0  0  0
    9.8187   -2.0895   25.5800 C   0  0  0  0  0  0  0  0  0  0  0  0
    5.6473   -8.7216   15.3158 C   0  0  0  0  0  0  0  0  0  0  0  0
   10.7581   -3.1233   19.4720 N   0  0  0  0  0  0  0  0  0  0  0  0
    9.9571   -4.0573   16.8866 C   0  0  0  0  0  0  0  0  0  0  0  0
    7.6213   -6.5618   16.0087 C   0  0  0  0  0  0  0  0  0  0  0  0
   10.8583   -2.6527   20.7222 C   0  0  0  0  0  0  0  0  0  0  0  0
   10.6412   -3.5089   21.7936 C   0  0  0  0  0  0  0  0  0  0  0  0
   10.4972   -3.8968   24.1589 C   0  0  0  0  0  0  0  0  0  0  0  0
    5.9260   -8.2736   16.5517 C   0  0  0  0  0  0  0  0  0  0  0  0
    3.8816   -9.1166   17.2493 C   0  0  0  0  0  0  0  0  0  0  0  0
   10.1297   -1.6575   23.2324 C   0  0  0  0  0  0  0  0  0  0  0  0
    9.4684   -1.6929   26.7263 F   0  0  0  0  0  0  0  0  0  0  0  0
    7.7963   -7.7906   17.9837 C   0  0  0  0  0  0  0  0  0  0  0  0
   10.5884   -3.0725   16.7902 O   0  0  0  0  0  0  0  0  0  0  0  0
   10.4323   -5.3494   20.3516 C   0  0  0  0  0  0  0  0  0  0  0  0
    7.1156   -7.5454   16.8218 C   0  0  0  0  0  0  0  0  0  0  0  0
   10.3885   -4.4388   19.2773 C   0  0  0  0  0  0  0  0  0  0  0  0
    4.5160   -9.3822   15.0841 C   0  0  0  0  0  0  0  0  0  0  0  0
  1  3  4  0
  1 24  4  0
  2  6  4  0
  2 15  4  0
  3  5  4  0
  3  6  4  0
  4 21  4  0
  4 29  4  0
  5 15  4  0
  5 28  1  0
  6 16  4  0
  7 18  4  0
  7 26  4  0
  8 18  1  0
  8 19  4  0
  8 22  4  0
  9 12  4  0
  9 19  4  0
 10 12  4  0
 10 22  4  0
 11 20  4  0
 11 21  4  0
 12 23  1  0
 13 20  4  0
 13 29  4  0
 14 17  4  0
 14 28  4  0
 15 25  2  0
 16 27  4  0
 17 18  4  0
 20 27  1  0
 24 27  4  0
 26 28  4  0
M  END
$$$$

 Created by Python create_sdf_string function

 29 33  0  0  0  0  0  0  0  0999 V2000
    8.8270   -7.0288   18.4251 C   0  0  0  0  0  0  0  0  0  0  0  0
    9.1576   -4.6236   15.8860 O   0  0  0  0  0  0  0  0  0  0  0  0
    9.1509   -5.9108   17.7177 C   0  0  0  0  0  0  0  0  0  0  0  0
    3.6373   -9.5349   16.0582 N   0  0  0  0  0  0  0  0  0  0  0  0
    9.9275   -4.8001   18.0438 N   0  0  0  0  0  0  0  0  0  0  0  0
    8.5908   -5.7425   16.4412 C   0  0  0  0  0  0  0  0  0  0  0  0
   10.5993   -4.8981   21.6068 C   0  0  0  0  0  0  0  0  0  0  0  0
   10.4258   -3.0106   23.0998 C   0  0  0  0  0  0  0  0  0  0  0  0
   10.2148   -3.4364   25.4200 C   0  0  0  0  0  0  0  0  0  0  0  0
    9.7853   -1.1840   24.4927 C   0  0  0  0  0  0  0  0  0  0  0  0
    5.0276   -8.5227   17.5352 C   0  0  0  0  0  0  0  0  0  0  0  0
    9.8187   -2.0895   25.5800 C   0  0  0  0  0  0  0  0  0  0  0  0
    5.6473   -8.7216   15.3158 C   0  0  0  0  0  0  0  0  0  0  0  0
   10.7581   -3.1233   19.4720 N   0  0  0  0  0  0  0  0  0  0  0  0
    9.9571   -4.0573   16.8866 C   0  0  0  0  0  0  0  0  0  0  0  0
    7.6213   -6.5618   16.0087 C   0  0  0  0  0  0  0  0  0  0  0  0
   10.8583   -2.6527   20.7222 C   0  0  0  0  0  0  0  0  0  0  0  0
   10.6412   -3.5089   21.7936 C   0  0  0  0  0  0  0  0  0  0  0  0
   10.4972   -3.8968   24.1589 C   0  0  0  0  0  0  0  0  0  0  0  0
    5.9260   -8.2736   16.5517 C   0  0  0  0  0  0  0  0  0  0  0  0
    3.8816   -9.1166   17.2493 C   0  0  0  0  0  0  0  0  0  0  0  0
   10.1297   -1.6575   23.2324 C   0  0  0  0  0  0  0  0  0  0  0  0
    9.4684   -1.6929   26.7263 F   0  0  0  0  0  0  0  0  0  0  0  0
    7.7963   -7.7906   17.9837 C   0  0  0  0  0  0  0  0  0  0  0  0
   10.5884   -3.0725   16.7902 O   0  0  0  0  0  0  0  0  0  0  0  0
   10.4323   -5.3494   20.3516 C   0  0  0  0  0  0  0  0  0  0  0  0
    7.1156   -7.5454   16.8218 C   0  0  0  0  0  0  0  0  0  0  0  0
   10.3885   -4.4388   19.2773 C   0  0  0  0  0  0  0  0  0  0  0  0
    4.5160   -9.3822   15.0841 C   0  0  0  0  0  0  0  0  0  0  0  0
  1  3  4  0
  1 24  4  0
  2  6  4  0
  2 15  4  0
  3  5  4  0
  3  6  4  0
  4 21  4  0
  4 29  4  0
  5 15  4  0
  5 28  1  0
  6 16  4  0
  7 18  4  0
  7 26  4  0
  8 18  1  0
  8 19  4  0
  8 22  4  0
  9 12  4  0
  9 19  4  0
 10 12  4  0
 10 22  4  0
 11 20  4  0
 11 21  4  0
 12 23  1  0
 13 20  4  0
 13 29  4  0
 14 17  4  0
 14 28  4  0
 15 25  2  0
 16 27  4  0
 17 18  4  0
 20 27  1  0
 24 27  4  0
 26 28  4  0
M  END
$$$$

 Created by Python create_sdf_string function

 29 33  0  0  0  0  0  0  0  0999 V2000
    8.8270   -7.0288   18.4251 C   0  0  0  0  0  0  0  0  0  0  0  0
    9.1576   -4.6236   15.8860 O   0  0  0  0  0  0  0  0  0  0  0  0
    9.1509   -5.9108   17.7177 C   0  0  0  0  0  0  0  0  0  0  0  0
    3.6373   -9.5349   16.0582 N   0  0  0  0  0  0  0  0  0  0  0  0
    9.9275   -4.8001   18.0438 N   0  0  0  0  0  0  0  0  0  0  0  0
    8.5908   -5.7425   16.4412 C   0  0  0  0  0  0  0  0  0  0  0  0
   10.5993   -4.8981   21.6068 C   0  0  0  0  0  0  0  0  0  0  0  0
   10.4258   -3.0106   23.0998 C   0  0  0  0  0  0  0  0  0  0  0  0
   10.2148   -3.4364   25.4200 C   0  0  0  0  0  0  0  0  0  0  0  0
    9.7853   -1.1840   24.4927 C   0  0  0  0  0  0  0  0  0  0  0  0
    5.0276   -8.5227   17.5352 C   0  0  0  0  0  0  0  0  0  0  0  0
    9.8187   -2.0895   25.5800 C   0  0  0  0  0  0  0  0  0  0  0  0
    5.6473   -8.7216   15.3158 C   0  0  0  0  0  0  0  0  0  0  0  0
   10.7581   -3.1233   19.4720 N   0  0  0  0  0  0  0  0  0  0  0  0
    9.9571   -4.0573   16.8866 C   0  0  0  0  0  0  0  0  0  0  0  0
    7.6213   -6.5618   16.0087 C   0  0  0  0  0  0  0  0  0  0  0  0
   10.8583   -2.6527   20.7222 C   0  0  0  0  0  0  0  0  0  0  0  0
   10.6412   -3.5089   21.7936 C   0  0  0  0  0  0  0  0  0  0  0  0
   10.4972   -3.8968   24.1589 C   0  0  0  0  0  0  0  0  0  0  0  0
    5.9260   -8.2736   16.5517 C   0  0  0  0  0  0  0  0  0  0  0  0
    3.8816   -9.1166   17.2493 C   0  0  0  0  0  0  0  0  0  0  0  0
   10.1297   -1.6575   23.2324 C   0  0  0  0  0  0  0  0  0  0  0  0
    9.4684   -1.6929   26.7263 F   0  0  0  0  0  0  0  0  0  0  0  0
    7.7963   -7.7906   17.9837 C   0  0  0  0  0  0  0  0  0  0  0  0
   10.5884   -3.0725   16.7902 O   0  0  0  0  0  0  0  0  0  0  0  0
   10.4323   -5.3494   20.3516 C   0  0  0  0  0  0  0  0  0  0  0  0
    7.1156   -7.5454   16.8218 C   0  0  0  0  0  0  0  0  0  0  0  0
   10.3885   -4.4388   19.2773 C   0  0  0  0  0  0  0  0  0  0  0  0
    4.5160   -9.3822   15.0841 C   0  0  0  0  0  0  0  0  0  0  0  0
  1  3  4  0
  1 24  4  0
  2  6  4  0
  2 15  4  0
  3  5  4  0
  3  6  4  0
  4 21  4  0
  4 29  4  0
  5 15  4  0
  5 28  1  0
  6 16  4  0
  7 18  4  0
  7 26  4  0
  8 18  1  0
  8 19  4  0
  8 22  4  0
  9 12  4  0
  9 19  4  0
 10 12  4  0
 10 22  4  0
 11 20  4  0
 11 21  4  0
 12 23  1  0
 13 20  4  0
 13 29  4  0
 14 17  4  0
 14 28  4  0
 15 25  2  0
 16 27  4  0
 17 18  4  0
 20 27  1  0
 24 27  4  0
 26 28  4  0
M  END
$$$$

 Created by Python create_sdf_string function

 29 33  0  0  0  0  0  0  0  0999 V2000
    8.8270   -7.0288   18.4251 C   0  0  0  0  0  0  0  0  0  0  0  0
    9.1576   -4.6236   15.8860 O   0  0  0  0  0  0  0  0  0  0  0  0
    9.1509   -5.9108   17.7177 C   0  0  0  0  0  0  0  0  0  0  0  0
    3.6373   -9.5349   16.0582 N   0  0  0  0  0  0  0  0  0  0  0  0
    9.9275   -4.8001   18.0438 N   0  0  0  0  0  0  0  0  0  0  0  0
    8.5908   -5.7425   16.4412 C   0  0  0  0  0  0  0  0  0  0  0  0
   10.5993   -4.8981   21.6068 C   0  0  0  0  0  0  0  0  0  0  0  0
   10.4258   -3.0106   23.0998 C   0  0  0  0  0  0  0  0  0  0  0  0
   10.2148   -3.4364   25.4200 C   0  0  0  0  0  0  0  0  0  0  0  0
    9.7853   -1.1840   24.4927 C   0  0  0  0  0  0  0  0  0  0  0  0
    5.0276   -8.5227   17.5352 C   0  0  0  0  0  0  0  0  0  0  0  0
    9.8187   -2.0895   25.5800 C   0  0  0  0  0  0  0  0  0  0  0  0
    5.6473   -8.7216   15.3158 C   0  0  0  0  0  0  0  0  0  0  0  0
   10.7581   -3.1233   19.4720 N   0  0  0  0  0  0  0  0  0  0  0  0
    9.9571   -4.0573   16.8866 C   0  0  0  0  0  0  0  0  0  0  0  0
    7.6213   -6.5618   16.0087 C   0  0  0  0  0  0  0  0  0  0  0  0
   10.8583   -2.6527   20.7222 C   0  0  0  0  0  0  0  0  0  0  0  0
   10.6412   -3.5089   21.7936 C   0  0  0  0  0  0  0  0  0  0  0  0
   10.4972   -3.8968   24.1589 C   0  0  0  0  0  0  0  0  0  0  0  0
    5.9260   -8.2736   16.5517 C   0  0  0  0  0  0  0  0  0  0  0  0
    3.8816   -9.1166   17.2493 C   0  0  0  0  0  0  0  0  0  0  0  0
   10.1297   -1.6575   23.2324 C   0  0  0  0  0  0  0  0  0  0  0  0
    9.4684   -1.6929   26.7263 F   0  0  0  0  0  0  0  0  0  0  0  0
    7.7963   -7.7906   17.9837 C   0  0  0  0  0  0  0  0  0  0  0  0
   10.5884   -3.0725   16.7902 O   0  0  0  0  0  0  0  0  0  0  0  0
   10.4323   -5.3494   20.3516 C   0  0  0  0  0  0  0  0  0  0  0  0
    7.1156   -7.5454   16.8218 C   0  0  0  0  0  0  0  0  0  0  0  0
   10.3885   -4.4388   19.2773 C   0  0  0  0  0  0  0  0  0  0  0  0
    4.5160   -9.3822   15.0841 C   0  0  0  0  0  0  0  0  0  0  0  0
  1  3  4  0
  1 24  4  0
  2  6  4  0
  2 15  4  0
  3  5  4  0
  3  6  4  0
  4 21  4  0
  4 29  4  0
  5 15  4  0
  5 28  1  0
  6 16  4  0
  7 18  4  0
  7 26  4  0
  8 18  1  0
  8 19  4  0
  8 22  4  0
  9 12  4  0
  9 19  4  0
 10 12  4  0
 10 22  4  0
 11 20  4  0
 11 21  4  0
 12 23  1  0
 13 20  4  0
 13 29  4  0
 14 17  4  0
 14 28  4  0
 15 25  2  0
 16 27  4  0
 17 18  4  0
 20 27  1  0
 24 27  4  0
 26 28  4  0
M  END
$$$$

 Created by Python create_sdf_string function

 29 33  0  0  0  0  0  0  0  0999 V2000
    8.8270   -7.0288   18.4251 C   0  0  0  0  0  0  0  0  0  0  0  0
    9.1576   -4.6236   15.8860 O   0  0  0  0  0  0  0  0  0  0  0  0
    9.1509   -5.9108   17.7177 C   0  0  0  0  0  0  0  0  0  0  0  0
    3.6373   -9.5349   16.0582 N   0  0  0  0  0  0  0  0  0  0  0  0
    9.9275   -4.8001   18.0438 N   0  0  0  0  0  0  0  0  0  0  0  0
    8.5908   -5.7425   16.4412 C   0  0  0  0  0  0  0  0  0  0  0  0
   10.5993   -4.8981   21.6068 C   0  0  0  0  0  0  0  0  0  0  0  0
   10.4258   -3.0106   23.0998 C   0  0  0  0  0  0  0  0  0  0  0  0
   10.2148   -3.4364   25.4200 C   0  0  0  0  0  0  0  0  0  0  0  0
    9.7853   -1.1840   24.4927 C   0  0  0  0  0  0  0  0  0  0  0  0
    5.0276   -8.5227   17.5352 C   0  0  0  0  0  0  0  0  0  0  0  0
    9.8187   -2.0895   25.5800 C   0  0  0  0  0  0  0  0  0  0  0  0
    5.6473   -8.7216   15.3158 C   0  0  0  0  0  0  0  0  0  0  0  0
   10.7581   -3.1233   19.4720 N   0  0  0  0  0  0  0  0  0  0  0  0
    9.9571   -4.0573   16.8866 C   0  0  0  0  0  0  0  0  0  0  0  0
    7.6213   -6.5618   16.0087 C   0  0  0  0  0  0  0  0  0  0  0  0
   10.8583   -2.6527   20.7222 C   0  0  0  0  0  0  0  0  0  0  0  0
   10.6412   -3.5089   21.7936 C   0  0  0  0  0  0  0  0  0  0  0  0
   10.4972   -3.8968   24.1589 C   0  0  0  0  0  0  0  0  0  0  0  0
    5.9260   -8.2736   16.5517 C   0  0  0  0  0  0  0  0  0  0  0  0
    3.8816   -9.1166   17.2493 C   0  0  0  0  0  0  0  0  0  0  0  0
   10.1297   -1.6575   23.2324 C   0  0  0  0  0  0  0  0  0  0  0  0
    9.4684   -1.6929   26.7263 F   0  0  0  0  0  0  0  0  0  0  0  0
    7.7963   -7.7906   17.9837 C   0  0  0  0  0  0  0  0  0  0  0  0
   10.5884   -3.0725   16.7902 O   0  0  0  0  0  0  0  0  0  0  0  0
   10.4323   -5.3494   20.3516 C   0  0  0  0  0  0  0  0  0  0  0  0
    7.1156   -7.5454   16.8218 C   0  0  0  0  0  0  0  0  0  0  0  0
   10.3885   -4.4388   19.2773 C   0  0  0  0  0  0  0  0  0  0  0  0
    4.5160   -9.3822   15.0841 C   0  0  0  0  0  0  0  0  0  0  0  0
  1  3  4  0
  1 24  4  0
  2  6  4  0
  2 15  4  0
  3  5  4  0
  3  6  4  0
  4 21  4  0
  4 29  4  0
  5 15  4  0
  5 28  1  0
  6 16  4  0
  7 18  4  0
  7 26  4  0
  8 18  1  0
  8 19  4  0
  8 22  4  0
  9 12  4  0
  9 19  4  0
 10 12  4  0
 10 22  4  0
 11 20  4  0
 11 21  4  0
 12 23  1  0
 13 20  4  0
 13 29  4  0
 14 17  4  0
 14 28  4  0
 15 25  2  0
 16 27  4  0
 17 18  4  0
 20 27  1  0
 24 27  4  0
 26 28  4  0
M  END
$$$$

 Created by Python create_sdf_string function

 29 33  0  0  0  0  0  0  0  0999 V2000
    8.8270   -7.0288   18.4251 C   0  0  0  0  0  0  0  0  0  0  0  0
    9.1576   -4.6236   15.8860 O   0  0  0  0  0  0  0  0  0  0  0  0
    9.1509   -5.9108   17.7177 C   0  0  0  0  0  0  0  0  0  0  0  0
    3.6373   -9.5349   16.0582 N   0  0  0  0  0  0  0  0  0  0  0  0
    9.9275   -4.8001   18.0438 N   0  0  0  0  0  0  0  0  0  0  0  0
    8.5908   -5.7425   16.4412 C   0  0  0  0  0  0  0  0  0  0  0  0
   10.5993   -4.8981   21.6068 C   0  0  0  0  0  0  0  0  0  0  0  0
   10.4258   -3.0106   23.0998 C   0  0  0  0  0  0  0  0  0  0  0  0
   10.2148   -3.4364   25.4200 C   0  0  0  0  0  0  0  0  0  0  0  0
    9.7853   -1.1840   24.4927 C   0  0  0  0  0  0  0  0  0  0  0  0
    5.0276   -8.5227   17.5352 C   0  0  0  0  0  0  0  0  0  0  0  0
    9.8187   -2.0895   25.5800 C   0  0  0  0  0  0  0  0  0  0  0  0
    5.6473   -8.7216   15.3158 C   0  0  0  0  0  0  0  0  0  0  0  0
   10.7581   -3.1233   19.4720 N   0  0  0  0  0  0  0  0  0  0  0  0
    9.9571   -4.0573   16.8866 C   0  0  0  0  0  0  0  0  0  0  0  0
    7.6213   -6.5618   16.0087 C   0  0  0  0  0  0  0  0  0  0  0  0
   10.8583   -2.6527   20.7222 C   0  0  0  0  0  0  0  0  0  0  0  0
   10.6412   -3.5089   21.7936 C   0  0  0  0  0  0  0  0  0  0  0  0
   10.4972   -3.8968   24.1589 C   0  0  0  0  0  0  0  0  0  0  0  0
    5.9260   -8.2736   16.5517 C   0  0  0  0  0  0  0  0  0  0  0  0
    3.8816   -9.1166   17.2493 C   0  0  0  0  0  0  0  0  0  0  0  0
   10.1297   -1.6575   23.2324 C   0  0  0  0  0  0  0  0  0  0  0  0
    9.4684   -1.6929   26.7263 F   0  0  0  0  0  0  0  0  0  0  0  0
    7.7963   -7.7906   17.9837 C   0  0  0  0  0  0  0  0  0  0  0  0
   10.5884   -3.0725   16.7902 O   0  0  0  0  0  0  0  0  0  0  0  0
   10.4323   -5.3494   20.3516 C   0  0  0  0  0  0  0  0  0  0  0  0
    7.1156   -7.5454   16.8218 C   0  0  0  0  0  0  0  0  0  0  0  0
   10.3885   -4.4388   19.2773 C   0  0  0  0  0  0  0  0  0  0  0  0
    4.5160   -9.3822   15.0841 C   0  0  0  0  0  0  0  0  0  0  0  0
  1  3  4  0
  1 24  4  0
  2  6  4  0
  2 15  4  0
  3  5  4  0
  3  6  4  0
  4 21  4  0
  4 29  4  0
  5 15  4  0
  5 28  1  0
  6 16  4  0
  7 18  4  0
  7 26  4  0
  8 18  1  0
  8 19  4  0
  8 22  4  0
  9 12  4  0
  9 19  4  0
 10 12  4  0
 10 22  4  0
 11 20  4  0
 11 21  4  0
 12 23  1  0
 13 20  4  0
 13 29  4  0
 14 17  4  0
 14 28  4  0
 15 25  2  0
 16 27  4  0
 17 18  4  0
 20 27  1  0
 24 27  4  0
 26 28  4  0
M  END
$$$$

 Created by Python create_sdf_string function

 29 33  0  0  0  0  0  0  0  0999 V2000
    8.8270   -7.0288   18.4251 C   0  0  0  0  0  0  0  0  0  0  0  0
    9.1576   -4.6236   15.8860 O   0  0  0  0  0  0  0  0  0  0  0  0
    9.1509   -5.9108   17.7177 C   0  0  0  0  0  0  0  0  0  0  0  0
    3.6373   -9.5349   16.0582 N   0  0  0  0  0  0  0  0  0  0  0  0
    9.9275   -4.8001   18.0438 N   0  0  0  0  0  0  0  0  0  0  0  0
    8.5908   -5.7425   16.4412 C   0  0  0  0  0  0  0  0  0  0  0  0
   10.5993   -4.8981   21.6068 C   0  0  0  0  0  0  0  0  0  0  0  0
   10.4258   -3.0106   23.0998 C   0  0  0  0  0  0  0  0  0  0  0  0
   10.2148   -3.4364   25.4200 C   0  0  0  0  0  0  0  0  0  0  0  0
    9.7853   -1.1840   24.4927 C   0  0  0  0  0  0  0  0  0  0  0  0
    5.0276   -8.5227   17.5352 C   0  0  0  0  0  0  0  0  0  0  0  0
    9.8187   -2.0895   25.5800 C   0  0  0  0  0  0  0  0  0  0  0  0
    5.6473   -8.7216   15.3158 C   0  0  0  0  0  0  0  0  0  0  0  0
   10.7581   -3.1233   19.4720 N   0  0  0  0  0  0  0  0  0  0  0  0
    9.9571   -4.0573   16.8866 C   0  0  0  0  0  0  0  0  0  0  0  0
    7.6213   -6.5618   16.0087 C   0  0  0  0  0  0  0  0  0  0  0  0
   10.8583   -2.6527   20.7222 C   0  0  0  0  0  0  0  0  0  0  0  0
   10.6412   -3.5089   21.7936 C   0  0  0  0  0  0  0  0  0  0  0  0
   10.4972   -3.8968   24.1589 C   0  0  0  0  0  0  0  0  0  0  0  0
    5.9260   -8.2736   16.5517 C   0  0  0  0  0  0  0  0  0  0  0  0
    3.8816   -9.1166   17.2493 C   0  0  0  0  0  0  0  0  0  0  0  0
   10.1297   -1.6575   23.2324 C   0  0  0  0  0  0  0  0  0  0  0  0
    9.4684   -1.6929   26.7263 F   0  0  0  0  0  0  0  0  0  0  0  0
    7.7963   -7.7906   17.9837 C   0  0  0  0  0  0  0  0  0  0  0  0
   10.5884   -3.0725   16.7902 O   0  0  0  0  0  0  0  0  0  0  0  0
   10.4323   -5.3494   20.3516 C   0  0  0  0  0  0  0  0  0  0  0  0
    7.1156   -7.5454   16.8218 C   0  0  0  0  0  0  0  0  0  0  0  0
   10.3885   -4.4388   19.2773 C   0  0  0  0  0  0  0  0  0  0  0  0
    4.5160   -9.3822   15.0841 C   0  0  0  0  0  0  0  0  0  0  0  0
  1  3  4  0
  1 24  4  0
  2  6  4  0
  2 15  4  0
  3  5  4  0
  3  6  4  0
  4 21  4  0
  4 29  4  0
  5 15  4  0
  5 28  1  0
  6 16  4  0
  7 18  4  0
  7 26  4  0
  8 18  1  0
  8 19  4  0
  8 22  4  0
  9 12  4  0
  9 19  4  0
 10 12  4  0
 10 22  4  0
 11 20  4  0
 11 21  4  0
 12 23  1  0
 13 20  4  0
 13 29  4  0
 14 17  4  0
 14 28  4  0
 15 25  2  0
 16 27  4  0
 17 18  4  0
 20 27  1  0
 24 27  4  0
 26 28  4  0
M  END
$$$$

 Created by Python create_sdf_string function

 29 33  0  0  0  0  0  0  0  0999 V2000
    8.8270   -7.0288   18.4251 C   0  0  0  0  0  0  0  0  0  0  0  0
    9.1576   -4.6236   15.8860 O   0  0  0  0  0  0  0  0  0  0  0  0
    9.1509   -5.9108   17.7177 C   0  0  0  0  0  0  0  0  0  0  0  0
    3.6373   -9.5349   16.0582 N   0  0  0  0  0  0  0  0  0  0  0  0
    9.9275   -4.8001   18.0438 N   0  0  0  0  0  0  0  0  0  0  0  0
    8.5908   -5.7425   16.4412 C   0  0  0  0  0  0  0  0  0  0  0  0
   10.5993   -4.8981   21.6068 C   0  0  0  0  0  0  0  0  0  0  0  0
   10.4258   -3.0106   23.0998 C   0  0  0  0  0  0  0  0  0  0  0  0
   10.2148   -3.4364   25.4200 C   0  0  0  0  0  0  0  0  0  0  0  0
    9.7853   -1.1840   24.4927 C   0  0  0  0  0  0  0  0  0  0  0  0
    5.0276   -8.5227   17.5352 C   0  0  0  0  0  0  0  0  0  0  0  0
    9.8187   -2.0895   25.5800 C   0  0  0  0  0  0  0  0  0  0  0  0
    5.6473   -8.7216   15.3158 C   0  0  0  0  0  0  0  0  0  0  0  0
   10.7581   -3.1233   19.4720 N   0  0  0  0  0  0  0  0  0  0  0  0
    9.9571   -4.0573   16.8866 C   0  0  0  0  0  0  0  0  0  0  0  0
    7.6213   -6.5618   16.0087 C   0  0  0  0  0  0  0  0  0  0  0  0
   10.8583   -2.6527   20.7222 C   0  0  0  0  0  0  0  0  0  0  0  0
   10.6412   -3.5089   21.7936 C   0  0  0  0  0  0  0  0  0  0  0  0
   10.4972   -3.8968   24.1589 C   0  0  0  0  0  0  0  0  0  0  0  0
    5.9260   -8.2736   16.5517 C   0  0  0  0  0  0  0  0  0  0  0  0
    3.8816   -9.1166   17.2493 C   0  0  0  0  0  0  0  0  0  0  0  0
   10.1297   -1.6575   23.2324 C   0  0  0  0  0  0  0  0  0  0  0  0
    9.4684   -1.6929   26.7263 F   0  0  0  0  0  0  0  0  0  0  0  0
    7.7963   -7.7906   17.9837 C   0  0  0  0  0  0  0  0  0  0  0  0
   10.5884   -3.0725   16.7902 O   0  0  0  0  0  0  0  0  0  0  0  0
   10.4323   -5.3494   20.3516 C   0  0  0  0  0  0  0  0  0  0  0  0
    7.1156   -7.5454   16.8218 C   0  0  0  0  0  0  0  0  0  0  0  0
   10.3885   -4.4388   19.2773 C   0  0  0  0  0  0  0  0  0  0  0  0
    4.5160   -9.3822   15.0841 C   0  0  0  0  0  0  0  0  0  0  0  0
  1  3  4  0
  1 24  4  0
  2  6  4  0
  2 15  4  0
  3  5  4  0
  3  6  4  0
  4 21  4  0
  4 29  4  0
  5 15  4  0
  5 28  1  0
  6 16  4  0
  7 18  4  0
  7 26  4  0
  8 18  1  0
  8 19  4  0
  8 22  4  0
  9 12  4  0
  9 19  4  0
 10 12  4  0
 10 22  4  0
 11 20  4  0
 11 21  4  0
 12 23  1  0
 13 20  4  0
 13 29  4  0
 14 17  4  0
 14 28  4  0
 15 25  2  0
 16 27  4  0
 17 18  4  0
 20 27  1  0
 24 27  4  0
 26 28  4  0
M  END
$$$$

 Created by Python create_sdf_string function

 29 33  0  0  0  0  0  0  0  0999 V2000
    8.8270   -7.0288   18.4251 C   0  0  0  0  0  0  0  0  0  0  0  0
    9.1576   -4.6236   15.8860 O   0  0  0  0  0  0  0  0  0  0  0  0
    9.1509   -5.9108   17.7177 C   0  0  0  0  0  0  0  0  0  0  0  0
    3.6373   -9.5349   16.0582 N   0  0  0  0  0  0  0  0  0  0  0  0
    9.9275   -4.8001   18.0438 N   0  0  0  0  0  0  0  0  0  0  0  0
    8.5908   -5.7425   16.4412 C   0  0  0  0  0  0  0  0  0  0  0  0
   10.5993   -4.8981   21.6068 C   0  0  0  0  0  0  0  0  0  0  0  0
   10.4258   -3.0106   23.0998 C   0  0  0  0  0  0  0  0  0  0  0  0
   10.2148   -3.4364   25.4200 C   0  0  0  0  0  0  0  0  0  0  0  0
    9.7853   -1.1840   24.4927 C   0  0  0  0  0  0  0  0  0  0  0  0
    5.0276   -8.5227   17.5352 C   0  0  0  0  0  0  0  0  0  0  0  0
    9.8187   -2.0895   25.5800 C   0  0  0  0  0  0  0  0  0  0  0  0
    5.6473   -8.7216   15.3158 C   0  0  0  0  0  0  0  0  0  0  0  0
   10.7581   -3.1233   19.4720 N   0  0  0  0  0  0  0  0  0  0  0  0
    9.9571   -4.0573   16.8866 C   0  0  0  0  0  0  0  0  0  0  0  0
    7.6213   -6.5618   16.0087 C   0  0  0  0  0  0  0  0  0  0  0  0
   10.8583   -2.6527   20.7222 C   0  0  0  0  0  0  0  0  0  0  0  0
   10.6412   -3.5089   21.7936 C   0  0  0  0  0  0  0  0  0  0  0  0
   10.4972   -3.8968   24.1589 C   0  0  0  0  0  0  0  0  0  0  0  0
    5.9260   -8.2736   16.5517 C   0  0  0  0  0  0  0  0  0  0  0  0
    3.8816   -9.1166   17.2493 C   0  0  0  0  0  0  0  0  0  0  0  0
   10.1297   -1.6575   23.2324 C   0  0  0  0  0  0  0  0  0  0  0  0
    9.4684   -1.6929   26.7263 F   0  0  0  0  0  0  0  0  0  0  0  0
    7.7963   -7.7906   17.9837 C   0  0  0  0  0  0  0  0  0  0  0  0
   10.5884   -3.0725   16.7902 O   0  0  0  0  0  0  0  0  0  0  0  0
   10.4323   -5.3494   20.3516 C   0  0  0  0  0  0  0  0  0  0  0  0
    7.1156   -7.5454   16.8218 C   0  0  0  0  0  0  0  0  0  0  0  0
   10.3885   -4.4388   19.2773 C   0  0  0  0  0  0  0  0  0  0  0  0
    4.5160   -9.3822   15.0841 C   0  0  0  0  0  0  0  0  0  0  0  0
  1  3  4  0
  1 24  4  0
  2  6  4  0
  2 15  4  0
  3  5  4  0
  3  6  4  0
  4 21  4  0
  4 29  4  0
  5 15  4  0
  5 28  1  0
  6 16  4  0
  7 18  4  0
  7 26  4  0
  8 18  1  0
  8 19  4  0
  8 22  4  0
  9 12  4  0
  9 19  4  0
 10 12  4  0
 10 22  4  0
 11 20  4  0
 11 21  4  0
 12 23  1  0
 13 20  4  0
 13 29  4  0
 14 17  4  0
 14 28  4  0
 15 25  2  0
 16 27  4  0
 17 18  4  0
 20 27  1  0
 24 27  4  0
 26 28  4  0
M  END
$$$$

 Created by Python create_sdf_string function

 29 33  0  0  0  0  0  0  0  0999 V2000
    8.8270   -7.0288   18.4251 C   0  0  0  0  0  0  0  0  0  0  0  0
    9.1576   -4.6236   15.8860 O   0  0  0  0  0  0  0  0  0  0  0  0
    9.1509   -5.9108   17.7177 C   0  0  0  0  0  0  0  0  0  0  0  0
    3.6373   -9.5349   16.0582 N   0  0  0  0  0  0  0  0  0  0  0  0
    9.9275   -4.8001   18.0438 N   0  0  0  0  0  0  0  0  0  0  0  0
    8.5908   -5.7425   16.4412 C   0  0  0  0  0  0  0  0  0  0  0  0
   10.5993   -4.8981   21.6068 C   0  0  0  0  0  0  0  0  0  0  0  0
   10.4258   -3.0106   23.0998 C   0  0  0  0  0  0  0  0  0  0  0  0
   10.2148   -3.4364   25.4200 C   0  0  0  0  0  0  0  0  0  0  0  0
    9.7853   -1.1840   24.4927 C   0  0  0  0  0  0  0  0  0  0  0  0
    5.0276   -8.5227   17.5352 C   0  0  0  0  0  0  0  0  0  0  0  0
    9.8187   -2.0895   25.5800 C   0  0  0  0  0  0  0  0  0  0  0  0
    5.6473   -8.7216   15.3158 C   0  0  0  0  0  0  0  0  0  0  0  0
   10.7581   -3.1233   19.4720 N   0  0  0  0  0  0  0  0  0  0  0  0
    9.9571   -4.0573   16.8866 C   0  0  0  0  0  0  0  0  0  0  0  0
    7.6213   -6.5618   16.0087 C   0  0  0  0  0  0  0  0  0  0  0  0
   10.8583   -2.6527   20.7222 C   0  0  0  0  0  0  0  0  0  0  0  0
   10.6412   -3.5089   21.7936 C   0  0  0  0  0  0  0  0  0  0  0  0
   10.4972   -3.8968   24.1589 C   0  0  0  0  0  0  0  0  0  0  0  0
    5.9260   -8.2736   16.5517 C   0  0  0  0  0  0  0  0  0  0  0  0
    3.8816   -9.1166   17.2493 C   0  0  0  0  0  0  0  0  0  0  0  0
   10.1297   -1.6575   23.2324 C   0  0  0  0  0  0  0  0  0  0  0  0
    9.4684   -1.6929   26.7263 F   0  0  0  0  0  0  0  0  0  0  0  0
    7.7963   -7.7906   17.9837 C   0  0  0  0  0  0  0  0  0  0  0  0
   10.5884   -3.0725   16.7902 O   0  0  0  0  0  0  0  0  0  0  0  0
   10.4323   -5.3494   20.3516 C   0  0  0  0  0  0  0  0  0  0  0  0
    7.1156   -7.5454   16.8218 C   0  0  0  0  0  0  0  0  0  0  0  0
   10.3885   -4.4388   19.2773 C   0  0  0  0  0  0  0  0  0  0  0  0
    4.5160   -9.3822   15.0841 C   0  0  0  0  0  0  0  0  0  0  0  0
  1  3  4  0
  1 24  4  0
  2  6  4  0
  2 15  4  0
  3  5  4  0
  3  6  4  0
  4 21  4  0
  4 29  4  0
  5 15  4  0
  5 28  1  0
  6 16  4  0
  7 18  4  0
  7 26  4  0
  8 18  1  0
  8 19  4  0
  8 22  4  0
  9 12  4  0
  9 19  4  0
 10 12  4  0
 10 22  4  0
 11 20  4  0
 11 21  4  0
 12 23  1  0
 13 20  4  0
 13 29  4  0
 14 17  4  0
 14 28  4  0
 15 25  2  0
 16 27  4  0
 17 18  4  0
 20 27  1  0
 24 27  4  0
 26 28  4  0
M  END
$$$$

 Created by Python create_sdf_string function

 29 33  0  0  0  0  0  0  0  0999 V2000
    8.8270   -7.0288   18.4251 C   0  0  0  0  0  0  0  0  0  0  0  0
    9.1576   -4.6236   15.8860 O   0  0  0  0  0  0  0  0  0  0  0  0
    9.1509   -5.9108   17.7177 C   0  0  0  0  0  0  0  0  0  0  0  0
    3.6373   -9.5349   16.0582 N   0  0  0  0  0  0  0  0  0  0  0  0
    9.9275   -4.8001   18.0438 N   0  0  0  0  0  0  0  0  0  0  0  0
    8.5908   -5.7425   16.4412 C   0  0  0  0  0  0  0  0  0  0  0  0
   10.5993   -4.8981   21.6068 C   0  0  0  0  0  0  0  0  0  0  0  0
   10.4258   -3.0106   23.0998 C   0  0  0  0  0  0  0  0  0  0  0  0
   10.2148   -3.4364   25.4200 C   0  0  0  0  0  0  0  0  0  0  0  0
    9.7853   -1.1840   24.4927 C   0  0  0  0  0  0  0  0  0  0  0  0
    5.0276   -8.5227   17.5352 C   0  0  0  0  0  0  0  0  0  0  0  0
    9.8187   -2.0895   25.5800 C   0  0  0  0  0  0  0  0  0  0  0  0
    5.6473   -8.7216   15.3158 C   0  0  0  0  0  0  0  0  0  0  0  0
   10.7581   -3.1233   19.4720 N   0  0  0  0  0  0  0  0  0  0  0  0
    9.9571   -4.0573   16.8866 C   0  0  0  0  0  0  0  0  0  0  0  0
    7.6213   -6.5618   16.0087 C   0  0  0  0  0  0  0  0  0  0  0  0
   10.8583   -2.6527   20.7222 C   0  0  0  0  0  0  0  0  0  0  0  0
   10.6412   -3.5089   21.7936 C   0  0  0  0  0  0  0  0  0  0  0  0
   10.4972   -3.8968   24.1589 C   0  0  0  0  0  0  0  0  0  0  0  0
    5.9260   -8.2736   16.5517 C   0  0  0  0  0  0  0  0  0  0  0  0
    3.8816   -9.1166   17.2493 C   0  0  0  0  0  0  0  0  0  0  0  0
   10.1297   -1.6575   23.2324 C   0  0  0  0  0  0  0  0  0  0  0  0
    9.4684   -1.6929   26.7263 F   0  0  0  0  0  0  0  0  0  0  0  0
    7.7963   -7.7906   17.9837 C   0  0  0  0  0  0  0  0  0  0  0  0
   10.5884   -3.0725   16.7902 O   0  0  0  0  0  0  0  0  0  0  0  0
   10.4323   -5.3494   20.3516 C   0  0  0  0  0  0  0  0  0  0  0  0
    7.1156   -7.5454   16.8218 C   0  0  0  0  0  0  0  0  0  0  0  0
   10.3885   -4.4388   19.2773 C   0  0  0  0  0  0  0  0  0  0  0  0
    4.5160   -9.3822   15.0841 C   0  0  0  0  0  0  0  0  0  0  0  0
  1  3  4  0
  1 24  4  0
  2  6  4  0
  2 15  4  0
  3  5  4  0
  3  6  4  0
  4 21  4  0
  4 29  4  0
  5 15  4  0
  5 28  1  0
  6 16  4  0
  7 18  4  0
  7 26  4  0
  8 18  1  0
  8 19  4  0
  8 22  4  0
  9 12  4  0
  9 19  4  0
 10 12  4  0
 10 22  4  0
 11 20  4  0
 11 21  4  0
 12 23  1  0
 13 20  4  0
 13 29  4  0
 14 17  4  0
 14 28  4  0
 15 25  2  0
 16 27  4  0
 17 18  4  0
 20 27  1  0
 24 27  4  0
 26 28  4  0
M  END
$$$$

 Created by Python create_sdf_string function

 29 33  0  0  0  0  0  0  0  0999 V2000
    8.8270   -7.0288   18.4251 C   0  0  0  0  0  0  0  0  0  0  0  0
    9.1576   -4.6236   15.8860 O   0  0  0  0  0  0  0  0  0  0  0  0
    9.1509   -5.9108   17.7177 C   0  0  0  0  0  0  0  0  0  0  0  0
    3.6373   -9.5349   16.0582 N   0  0  0  0  0  0  0  0  0  0  0  0
    9.9275   -4.8001   18.0438 N   0  0  0  0  0  0  0  0  0  0  0  0
    8.5908   -5.7425   16.4412 C   0  0  0  0  0  0  0  0  0  0  0  0
   10.5993   -4.8981   21.6068 C   0  0  0  0  0  0  0  0  0  0  0  0
   10.4258   -3.0106   23.0998 C   0  0  0  0  0  0  0  0  0  0  0  0
   10.2148   -3.4364   25.4200 C   0  0  0  0  0  0  0  0  0  0  0  0
    9.7853   -1.1840   24.4927 C   0  0  0  0  0  0  0  0  0  0  0  0
    5.0276   -8.5227   17.5352 C   0  0  0  0  0  0  0  0  0  0  0  0
    9.8187   -2.0895   25.5800 C   0  0  0  0  0  0  0  0  0  0  0  0
    5.6473   -8.7216   15.3158 C   0  0  0  0  0  0  0  0  0  0  0  0
   10.7581   -3.1233   19.4720 N   0  0  0  0  0  0  0  0  0  0  0  0
    9.9571   -4.0573   16.8866 C   0  0  0  0  0  0  0  0  0  0  0  0
    7.6213   -6.5618   16.0087 C   0  0  0  0  0  0  0  0  0  0  0  0
   10.8583   -2.6527   20.7222 C   0  0  0  0  0  0  0  0  0  0  0  0
   10.6412   -3.5089   21.7936 C   0  0  0  0  0  0  0  0  0  0  0  0
   10.4972   -3.8968   24.1589 C   0  0  0  0  0  0  0  0  0  0  0  0
    5.9260   -8.2736   16.5517 C   0  0  0  0  0  0  0  0  0  0  0  0
    3.8816   -9.1166   17.2493 C   0  0  0  0  0  0  0  0  0  0  0  0
   10.1297   -1.6575   23.2324 C   0  0  0  0  0  0  0  0  0  0  0  0
    9.4684   -1.6929   26.7263 F   0  0  0  0  0  0  0  0  0  0  0  0
    7.7963   -7.7906   17.9837 C   0  0  0  0  0  0  0  0  0  0  0  0
   10.5884   -3.0725   16.7902 O   0  0  0  0  0  0  0  0  0  0  0  0
   10.4323   -5.3494   20.3516 C   0  0  0  0  0  0  0  0  0  0  0  0
    7.1156   -7.5454   16.8218 C   0  0  0  0  0  0  0  0  0  0  0  0
   10.3885   -4.4388   19.2773 C   0  0  0  0  0  0  0  0  0  0  0  0
    4.5160   -9.3822   15.0841 C   0  0  0  0  0  0  0  0  0  0  0  0
  1  3  4  0
  1 24  4  0
  2  6  4  0
  2 15  4  0
  3  5  4  0
  3  6  4  0
  4 21  4  0
  4 29  4  0
  5 15  4  0
  5 28  1  0
  6 16  4  0
  7 18  4  0
  7 26  4  0
  8 18  1  0
  8 19  4  0
  8 22  4  0
  9 12  4  0
  9 19  4  0
 10 12  4  0
 10 22  4  0
 11 20  4  0
 11 21  4  0
 12 23  1  0
 13 20  4  0
 13 29  4  0
 14 17  4  0
 14 28  4  0
 15 25  2  0
 16 27  4  0
 17 18  4  0
 20 27  1  0
 24 27  4  0
 26 28  4  0
M  END
$$$$

 Created by Python create_sdf_string function

 29 33  0  0  0  0  0  0  0  0999 V2000
    8.8270   -7.0288   18.4251 C   0  0  0  0  0  0  0  0  0  0  0  0
    9.1576   -4.6236   15.8860 O   0  0  0  0  0  0  0  0  0  0  0  0
    9.1509   -5.9108   17.7177 C   0  0  0  0  0  0  0  0  0  0  0  0
    3.6373   -9.5349   16.0582 N   0  0  0  0  0  0  0  0  0  0  0  0
    9.9275   -4.8001   18.0438 N   0  0  0  0  0  0  0  0  0  0  0  0
    8.5908   -5.7425   16.4412 C   0  0  0  0  0  0  0  0  0  0  0  0
   10.5993   -4.8981   21.6068 C   0  0  0  0  0  0  0  0  0  0  0  0
   10.4258   -3.0106   23.0998 C   0  0  0  0  0  0  0  0  0  0  0  0
   10.2148   -3.4364   25.4200 C   0  0  0  0  0  0  0  0  0  0  0  0
    9.7853   -1.1840   24.4927 C   0  0  0  0  0  0  0  0  0  0  0  0
    5.0276   -8.5227   17.5352 C   0  0  0  0  0  0  0  0  0  0  0  0
    9.8187   -2.0895   25.5800 C   0  0  0  0  0  0  0  0  0  0  0  0
    5.6473   -8.7216   15.3158 C   0  0  0  0  0  0  0  0  0  0  0  0
   10.7581   -3.1233   19.4720 N   0  0  0  0  0  0  0  0  0  0  0  0
    9.9571   -4.0573   16.8866 C   0  0  0  0  0  0  0  0  0  0  0  0
    7.6213   -6.5618   16.0087 C   0  0  0  0  0  0  0  0  0  0  0  0
   10.8583   -2.6527   20.7222 C   0  0  0  0  0  0  0  0  0  0  0  0
   10.6412   -3.5089   21.7936 C   0  0  0  0  0  0  0  0  0  0  0  0
   10.4972   -3.8968   24.1589 C   0  0  0  0  0  0  0  0  0  0  0  0
    5.9260   -8.2736   16.5517 C   0  0  0  0  0  0  0  0  0  0  0  0
    3.8816   -9.1166   17.2493 C   0  0  0  0  0  0  0  0  0  0  0  0
   10.1297   -1.6575   23.2324 C   0  0  0  0  0  0  0  0  0  0  0  0
    9.4684   -1.6929   26.7263 F   0  0  0  0  0  0  0  0  0  0  0  0
    7.7963   -7.7906   17.9837 C   0  0  0  0  0  0  0  0  0  0  0  0
   10.5884   -3.0725   16.7902 O   0  0  0  0  0  0  0  0  0  0  0  0
   10.4323   -5.3494   20.3516 C   0  0  0  0  0  0  0  0  0  0  0  0
    7.1156   -7.5454   16.8218 C   0  0  0  0  0  0  0  0  0  0  0  0
   10.3885   -4.4388   19.2773 C   0  0  0  0  0  0  0  0  0  0  0  0
    4.5160   -9.3822   15.0841 C   0  0  0  0  0  0  0  0  0  0  0  0
  1  3  4  0
  1 24  4  0
  2  6  4  0
  2 15  4  0
  3  5  4  0
  3  6  4  0
  4 21  4  0
  4 29  4  0
  5 15  4  0
  5 28  1  0
  6 16  4  0
  7 18  4  0
  7 26  4  0
  8 18  1  0
  8 19  4  0
  8 22  4  0
  9 12  4  0
  9 19  4  0
 10 12  4  0
 10 22  4  0
 11 20  4  0
 11 21  4  0
 12 23  1  0
 13 20  4  0
 13 29  4  0
 14 17  4  0
 14 28  4  0
 15 25  2  0
 16 27  4  0
 17 18  4  0
 20 27  1  0
 24 27  4  0
 26 28  4  0
M  END
$$$$

 Created by Python create_sdf_string function

 29 33  0  0  0  0  0  0  0  0999 V2000
    8.8270   -7.0288   18.4251 C   0  0  0  0  0  0  0  0  0  0  0  0
    9.1576   -4.6236   15.8860 O   0  0  0  0  0  0  0  0  0  0  0  0
    9.1509   -5.9108   17.7177 C   0  0  0  0  0  0  0  0  0  0  0  0
    3.6373   -9.5349   16.0582 N   0  0  0  0  0  0  0  0  0  0  0  0
    9.9275   -4.8001   18.0438 N   0  0  0  0  0  0  0  0  0  0  0  0
    8.5908   -5.7425   16.4412 C   0  0  0  0  0  0  0  0  0  0  0  0
   10.5993   -4.8981   21.6068 C   0  0  0  0  0  0  0  0  0  0  0  0
   10.4258   -3.0106   23.0998 C   0  0  0  0  0  0  0  0  0  0  0  0
   10.2148   -3.4364   25.4200 C   0  0  0  0  0  0  0  0  0  0  0  0
    9.7853   -1.1840   24.4927 C   0  0  0  0  0  0  0  0  0  0  0  0
    5.0276   -8.5227   17.5352 C   0  0  0  0  0  0  0  0  0  0  0  0
    9.8187   -2.0895   25.5800 C   0  0  0  0  0  0  0  0  0  0  0  0
    5.6473   -8.7216   15.3158 C   0  0  0  0  0  0  0  0  0  0  0  0
   10.7581   -3.1233   19.4720 N   0  0  0  0  0  0  0  0  0  0  0  0
    9.9571   -4.0573   16.8866 C   0  0  0  0  0  0  0  0  0  0  0  0
    7.6213   -6.5618   16.0087 C   0  0  0  0  0  0  0  0  0  0  0  0
   10.8583   -2.6527   20.7222 C   0  0  0  0  0  0  0  0  0  0  0  0
   10.6412   -3.5089   21.7936 C   0  0  0  0  0  0  0  0  0  0  0  0
   10.4972   -3.8968   24.1589 C   0  0  0  0  0  0  0  0  0  0  0  0
    5.9260   -8.2736   16.5517 C   0  0  0  0  0  0  0  0  0  0  0  0
    3.8816   -9.1166   17.2493 C   0  0  0  0  0  0  0  0  0  0  0  0
   10.1297   -1.6575   23.2324 C   0  0  0  0  0  0  0  0  0  0  0  0
    9.4684   -1.6929   26.7263 F   0  0  0  0  0  0  0  0  0  0  0  0
    7.7963   -7.7906   17.9837 C   0  0  0  0  0  0  0  0  0  0  0  0
   10.5884   -3.0725   16.7902 O   0  0  0  0  0  0  0  0  0  0  0  0
   10.4323   -5.3494   20.3516 C   0  0  0  0  0  0  0  0  0  0  0  0
    7.1156   -7.5454   16.8218 C   0  0  0  0  0  0  0  0  0  0  0  0
   10.3885   -4.4388   19.2773 C   0  0  0  0  0  0  0  0  0  0  0  0
    4.5160   -9.3822   15.0841 C   0  0  0  0  0  0  0  0  0  0  0  0
  1  3  4  0
  1 24  4  0
  2  6  4  0
  2 15  4  0
  3  5  4  0
  3  6  4  0
  4 21  4  0
  4 29  4  0
  5 15  4  0
  5 28  1  0
  6 16  4  0
  7 18  4  0
  7 26  4  0
  8 18  1  0
  8 19  4  0
  8 22  4  0
  9 12  4  0
  9 19  4  0
 10 12  4  0
 10 22  4  0
 11 20  4  0
 11 21  4  0
 12 23  1  0
 13 20  4  0
 13 29  4  0
 14 17  4  0
 14 28  4  0
 15 25  2  0
 16 27  4  0
 17 18  4  0
 20 27  1  0
 24 27  4  0
 26 28  4  0
M  END
$$$$

 Created by Python create_sdf_string function

 29 33  0  0  0  0  0  0  0  0999 V2000
    8.8270   -7.0288   18.4251 C   0  0  0  0  0  0  0  0  0  0  0  0
    9.1576   -4.6236   15.8860 O   0  0  0  0  0  0  0  0  0  0  0  0
    9.1509   -5.9108   17.7177 C   0  0  0  0  0  0  0  0  0  0  0  0
    3.6373   -9.5349   16.0582 N   0  0  0  0  0  0  0  0  0  0  0  0
    9.9275   -4.8001   18.0438 N   0  0  0  0  0  0  0  0  0  0  0  0
    8.5908   -5.7425   16.4412 C   0  0  0  0  0  0  0  0  0  0  0  0
   10.5993   -4.8981   21.6068 C   0  0  0  0  0  0  0  0  0  0  0  0
   10.4258   -3.0106   23.0998 C   0  0  0  0  0  0  0  0  0  0  0  0
   10.2148   -3.4364   25.4200 C   0  0  0  0  0  0  0  0  0  0  0  0
    9.7853   -1.1840   24.4927 C   0  0  0  0  0  0  0  0  0  0  0  0
    5.0276   -8.5227   17.5352 C   0  0  0  0  0  0  0  0  0  0  0  0
    9.8187   -2.0895   25.5800 C   0  0  0  0  0  0  0  0  0  0  0  0
    5.6473   -8.7216   15.3158 C   0  0  0  0  0  0  0  0  0  0  0  0
   10.7581   -3.1233   19.4720 N   0  0  0  0  0  0  0  0  0  0  0  0
    9.9571   -4.0573   16.8866 C   0  0  0  0  0  0  0  0  0  0  0  0
    7.6213   -6.5618   16.0087 C   0  0  0  0  0  0  0  0  0  0  0  0
   10.8583   -2.6527   20.7222 C   0  0  0  0  0  0  0  0  0  0  0  0
   10.6412   -3.5089   21.7936 C   0  0  0  0  0  0  0  0  0  0  0  0
   10.4972   -3.8968   24.1589 C   0  0  0  0  0  0  0  0  0  0  0  0
    5.9260   -8.2736   16.5517 C   0  0  0  0  0  0  0  0  0  0  0  0
    3.8816   -9.1166   17.2493 C   0  0  0  0  0  0  0  0  0  0  0  0
   10.1297   -1.6575   23.2324 C   0  0  0  0  0  0  0  0  0  0  0  0
    9.4684   -1.6929   26.7263 F   0  0  0  0  0  0  0  0  0  0  0  0
    7.7963   -7.7906   17.9837 C   0  0  0  0  0  0  0  0  0  0  0  0
   10.5884   -3.0725   16.7902 O   0  0  0  0  0  0  0  0  0  0  0  0
   10.4323   -5.3494   20.3516 C   0  0  0  0  0  0  0  0  0  0  0  0
    7.1156   -7.5454   16.8218 C   0  0  0  0  0  0  0  0  0  0  0  0
   10.3885   -4.4388   19.2773 C   0  0  0  0  0  0  0  0  0  0  0  0
    4.5160   -9.3822   15.0841 C   0  0  0  0  0  0  0  0  0  0  0  0
  1  3  4  0
  1 24  4  0
  2  6  4  0
  2 15  4  0
  3  5  4  0
  3  6  4  0
  4 21  4  0
  4 29  4  0
  5 15  4  0
  5 28  1  0
  6 16  4  0
  7 18  4  0
  7 26  4  0
  8 18  1  0
  8 19  4  0
  8 22  4  0
  9 12  4  0
  9 19  4  0
 10 12  4  0
 10 22  4  0
 11 20  4  0
 11 21  4  0
 12 23  1  0
 13 20  4  0
 13 29  4  0
 14 17  4  0
 14 28  4  0
 15 25  2  0
 16 27  4  0
 17 18  4  0
 20 27  1  0
 24 27  4  0
 26 28  4  0
M  END
$$$$

 Created by Python create_sdf_string function

 29 33  0  0  0  0  0  0  0  0999 V2000
    8.8270   -7.0288   18.4251 C   0  0  0  0  0  0  0  0  0  0  0  0
    9.1576   -4.6236   15.8860 O   0  0  0  0  0  0  0  0  0  0  0  0
    9.1509   -5.9108   17.7177 C   0  0  0  0  0  0  0  0  0  0  0  0
    3.6373   -9.5349   16.0582 N   0  0  0  0  0  0  0  0  0  0  0  0
    9.9275   -4.8001   18.0438 N   0  0  0  0  0  0  0  0  0  0  0  0
    8.5908   -5.7425   16.4412 C   0  0  0  0  0  0  0  0  0  0  0  0
   10.5993   -4.8981   21.6068 C   0  0  0  0  0  0  0  0  0  0  0  0
   10.4258   -3.0106   23.0998 C   0  0  0  0  0  0  0  0  0  0  0  0
   10.2148   -3.4364   25.4200 C   0  0  0  0  0  0  0  0  0  0  0  0
    9.7853   -1.1840   24.4927 C   0  0  0  0  0  0  0  0  0  0  0  0
    5.0276   -8.5227   17.5352 C   0  0  0  0  0  0  0  0  0  0  0  0
    9.8187   -2.0895   25.5800 C   0  0  0  0  0  0  0  0  0  0  0  0
    5.6473   -8.7216   15.3158 C   0  0  0  0  0  0  0  0  0  0  0  0
   10.7581   -3.1233   19.4720 N   0  0  0  0  0  0  0  0  0  0  0  0
    9.9571   -4.0573   16.8866 C   0  0  0  0  0  0  0  0  0  0  0  0
    7.6213   -6.5618   16.0087 C   0  0  0  0  0  0  0  0  0  0  0  0
   10.8583   -2.6527   20.7222 C   0  0  0  0  0  0  0  0  0  0  0  0
   10.6412   -3.5089   21.7936 C   0  0  0  0  0  0  0  0  0  0  0  0
   10.4972   -3.8968   24.1589 C   0  0  0  0  0  0  0  0  0  0  0  0
    5.9260   -8.2736   16.5517 C   0  0  0  0  0  0  0  0  0  0  0  0
    3.8816   -9.1166   17.2493 C   0  0  0  0  0  0  0  0  0  0  0  0
   10.1297   -1.6575   23.2324 C   0  0  0  0  0  0  0  0  0  0  0  0
    9.4684   -1.6929   26.7263 F   0  0  0  0  0  0  0  0  0  0  0  0
    7.7963   -7.7906   17.9837 C   0  0  0  0  0  0  0  0  0  0  0  0
   10.5884   -3.0725   16.7902 O   0  0  0  0  0  0  0  0  0  0  0  0
   10.4323   -5.3494   20.3516 C   0  0  0  0  0  0  0  0  0  0  0  0
    7.1156   -7.5454   16.8218 C   0  0  0  0  0  0  0  0  0  0  0  0
   10.3885   -4.4388   19.2773 C   0  0  0  0  0  0  0  0  0  0  0  0
    4.5160   -9.3822   15.0841 C   0  0  0  0  0  0  0  0  0  0  0  0
  1  3  4  0
  1 24  4  0
  2  6  4  0
  2 15  4  0
  3  5  4  0
  3  6  4  0
  4 21  4  0
  4 29  4  0
  5 15  4  0
  5 28  1  0
  6 16  4  0
  7 18  4  0
  7 26  4  0
  8 18  1  0
  8 19  4  0
  8 22  4  0
  9 12  4  0
  9 19  4  0
 10 12  4  0
 10 22  4  0
 11 20  4  0
 11 21  4  0
 12 23  1  0
 13 20  4  0
 13 29  4  0
 14 17  4  0
 14 28  4  0
 15 25  2  0
 16 27  4  0
 17 18  4  0
 20 27  1  0
 24 27  4  0
 26 28  4  0
M  END
$$$$

 Created by Python create_sdf_string function

 29 33  0  0  0  0  0  0  0  0999 V2000
    8.8270   -7.0288   18.4251 C   0  0  0  0  0  0  0  0  0  0  0  0
    9.1576   -4.6236   15.8860 O   0  0  0  0  0  0  0  0  0  0  0  0
    9.1509   -5.9108   17.7177 C   0  0  0  0  0  0  0  0  0  0  0  0
    3.6373   -9.5349   16.0582 N   0  0  0  0  0  0  0  0  0  0  0  0
    9.9275   -4.8001   18.0438 N   0  0  0  0  0  0  0  0  0  0  0  0
    8.5908   -5.7425   16.4412 C   0  0  0  0  0  0  0  0  0  0  0  0
   10.5993   -4.8981   21.6068 C   0  0  0  0  0  0  0  0  0  0  0  0
   10.4258   -3.0106   23.0998 C   0  0  0  0  0  0  0  0  0  0  0  0
   10.2148   -3.4364   25.4200 C   0  0  0  0  0  0  0  0  0  0  0  0
    9.7853   -1.1840   24.4927 C   0  0  0  0  0  0  0  0  0  0  0  0
    5.0276   -8.5227   17.5352 C   0  0  0  0  0  0  0  0  0  0  0  0
    9.8187   -2.0895   25.5800 C   0  0  0  0  0  0  0  0  0  0  0  0
    5.6473   -8.7216   15.3158 C   0  0  0  0  0  0  0  0  0  0  0  0
   10.7581   -3.1233   19.4720 N   0  0  0  0  0  0  0  0  0  0  0  0
    9.9571   -4.0573   16.8866 C   0  0  0  0  0  0  0  0  0  0  0  0
    7.6213   -6.5618   16.0087 C   0  0  0  0  0  0  0  0  0  0  0  0
   10.8583   -2.6527   20.7222 C   0  0  0  0  0  0  0  0  0  0  0  0
   10.6412   -3.5089   21.7936 C   0  0  0  0  0  0  0  0  0  0  0  0
   10.4972   -3.8968   24.1589 C   0  0  0  0  0  0  0  0  0  0  0  0
    5.9260   -8.2736   16.5517 C   0  0  0  0  0  0  0  0  0  0  0  0
    3.8816   -9.1166   17.2493 C   0  0  0  0  0  0  0  0  0  0  0  0
   10.1297   -1.6575   23.2324 C   0  0  0  0  0  0  0  0  0  0  0  0
    9.4684   -1.6929   26.7263 F   0  0  0  0  0  0  0  0  0  0  0  0
    7.7963   -7.7906   17.9837 C   0  0  0  0  0  0  0  0  0  0  0  0
   10.5884   -3.0725   16.7902 O   0  0  0  0  0  0  0  0  0  0  0  0
   10.4323   -5.3494   20.3516 C   0  0  0  0  0  0  0  0  0  0  0  0
    7.1156   -7.5454   16.8218 C   0  0  0  0  0  0  0  0  0  0  0  0
   10.3885   -4.4388   19.2773 C   0  0  0  0  0  0  0  0  0  0  0  0
    4.5160   -9.3822   15.0841 C   0  0  0  0  0  0  0  0  0  0  0  0
  1  3  4  0
  1 24  4  0
  2  6  4  0
  2 15  4  0
  3  5  4  0
  3  6  4  0
  4 21  4  0
  4 29  4  0
  5 15  4  0
  5 28  1  0
  6 16  4  0
  7 18  4  0
  7 26  4  0
  8 18  1  0
  8 19  4  0
  8 22  4  0
  9 12  4  0
  9 19  4  0
 10 12  4  0
 10 22  4  0
 11 20  4  0
 11 21  4  0
 12 23  1  0
 13 20  4  0
 13 29  4  0
 14 17  4  0
 14 28  4  0
 15 25  2  0
 16 27  4  0
 17 18  4  0
 20 27  1  0
 24 27  4  0
 26 28  4  0
M  END
$$$$

 Created by Python create_sdf_string function

 29 33  0  0  0  0  0  0  0  0999 V2000
    8.8270   -7.0288   18.4251 C   0  0  0  0  0  0  0  0  0  0  0  0
    9.1576   -4.6236   15.8860 O   0  0  0  0  0  0  0  0  0  0  0  0
    9.1509   -5.9108   17.7177 C   0  0  0  0  0  0  0  0  0  0  0  0
    3.6373   -9.5349   16.0582 N   0  0  0  0  0  0  0  0  0  0  0  0
    9.9275   -4.8001   18.0438 N   0  0  0  0  0  0  0  0  0  0  0  0
    8.5908   -5.7425   16.4412 C   0  0  0  0  0  0  0  0  0  0  0  0
   10.5993   -4.8981   21.6068 C   0  0  0  0  0  0  0  0  0  0  0  0
   10.4258   -3.0106   23.0998 C   0  0  0  0  0  0  0  0  0  0  0  0
   10.2148   -3.4364   25.4200 C   0  0  0  0  0  0  0  0  0  0  0  0
    9.7853   -1.1840   24.4927 C   0  0  0  0  0  0  0  0  0  0  0  0
    5.0276   -8.5227   17.5352 C   0  0  0  0  0  0  0  0  0  0  0  0
    9.8187   -2.0895   25.5800 C   0  0  0  0  0  0  0  0  0  0  0  0
    5.6473   -8.7216   15.3158 C   0  0  0  0  0  0  0  0  0  0  0  0
   10.7581   -3.1233   19.4720 N   0  0  0  0  0  0  0  0  0  0  0  0
    9.9571   -4.0573   16.8866 C   0  0  0  0  0  0  0  0  0  0  0  0
    7.6213   -6.5618   16.0087 C   0  0  0  0  0  0  0  0  0  0  0  0
   10.8583   -2.6527   20.7222 C   0  0  0  0  0  0  0  0  0  0  0  0
   10.6412   -3.5089   21.7936 C   0  0  0  0  0  0  0  0  0  0  0  0
   10.4972   -3.8968   24.1589 C   0  0  0  0  0  0  0  0  0  0  0  0
    5.9260   -8.2736   16.5517 C   0  0  0  0  0  0  0  0  0  0  0  0
    3.8816   -9.1166   17.2493 C   0  0  0  0  0  0  0  0  0  0  0  0
   10.1297   -1.6575   23.2324 C   0  0  0  0  0  0  0  0  0  0  0  0
    9.4684   -1.6929   26.7263 F   0  0  0  0  0  0  0  0  0  0  0  0
    7.7963   -7.7906   17.9837 C   0  0  0  0  0  0  0  0  0  0  0  0
   10.5884   -3.0725   16.7902 O   0  0  0  0  0  0  0  0  0  0  0  0
   10.4323   -5.3494   20.3516 C   0  0  0  0  0  0  0  0  0  0  0  0
    7.1156   -7.5454   16.8218 C   0  0  0  0  0  0  0  0  0  0  0  0
   10.3885   -4.4388   19.2773 C   0  0  0  0  0  0  0  0  0  0  0  0
    4.5160   -9.3822   15.0841 C   0  0  0  0  0  0  0  0  0  0  0  0
  1  3  4  0
  1 24  4  0
  2  6  4  0
  2 15  4  0
  3  5  4  0
  3  6  4  0
  4 21  4  0
  4 29  4  0
  5 15  4  0
  5 28  1  0
  6 16  4  0
  7 18  4  0
  7 26  4  0
  8 18  1  0
  8 19  4  0
  8 22  4  0
  9 12  4  0
  9 19  4  0
 10 12  4  0
 10 22  4  0
 11 20  4  0
 11 21  4  0
 12 23  1  0
 13 20  4  0
 13 29  4  0
 14 17  4  0
 14 28  4  0
 15 25  2  0
 16 27  4  0
 17 18  4  0
 20 27  1  0
 24 27  4  0
 26 28  4  0
M  END
$$$$

 Created by Python create_sdf_string function

 29 33  0  0  0  0  0  0  0  0999 V2000
    8.8270   -7.0288   18.4251 C   0  0  0  0  0  0  0  0  0  0  0  0
    9.1576   -4.6236   15.8860 O   0  0  0  0  0  0  0  0  0  0  0  0
    9.1509   -5.9108   17.7177 C   0  0  0  0  0  0  0  0  0  0  0  0
    3.6373   -9.5349   16.0582 N   0  0  0  0  0  0  0  0  0  0  0  0
    9.9275   -4.8001   18.0438 N   0  0  0  0  0  0  0  0  0  0  0  0
    8.5908   -5.7425   16.4412 C   0  0  0  0  0  0  0  0  0  0  0  0
   10.5993   -4.8981   21.6068 C   0  0  0  0  0  0  0  0  0  0  0  0
   10.4258   -3.0106   23.0998 C   0  0  0  0  0  0  0  0  0  0  0  0
   10.2148   -3.4364   25.4200 C   0  0  0  0  0  0  0  0  0  0  0  0
    9.7853   -1.1840   24.4927 C   0  0  0  0  0  0  0  0  0  0  0  0
    5.0276   -8.5227   17.5352 C   0  0  0  0  0  0  0  0  0  0  0  0
    9.8187   -2.0895   25.5800 C   0  0  0  0  0  0  0  0  0  0  0  0
    5.6473   -8.7216   15.3158 C   0  0  0  0  0  0  0  0  0  0  0  0
   10.7581   -3.1233   19.4720 N   0  0  0  0  0  0  0  0  0  0  0  0
    9.9571   -4.0573   16.8866 C   0  0  0  0  0  0  0  0  0  0  0  0
    7.6213   -6.5618   16.0087 C   0  0  0  0  0  0  0  0  0  0  0  0
   10.8583   -2.6527   20.7222 C   0  0  0  0  0  0  0  0  0  0  0  0
   10.6412   -3.5089   21.7936 C   0  0  0  0  0  0  0  0  0  0  0  0
   10.4972   -3.8968   24.1589 C   0  0  0  0  0  0  0  0  0  0  0  0
    5.9260   -8.2736   16.5517 C   0  0  0  0  0  0  0  0  0  0  0  0
    3.8816   -9.1166   17.2493 C   0  0  0  0  0  0  0  0  0  0  0  0
   10.1297   -1.6575   23.2324 C   0  0  0  0  0  0  0  0  0  0  0  0
    9.4684   -1.6929   26.7263 F   0  0  0  0  0  0  0  0  0  0  0  0
    7.7963   -7.7906   17.9837 C   0  0  0  0  0  0  0  0  0  0  0  0
   10.5884   -3.0725   16.7902 O   0  0  0  0  0  0  0  0  0  0  0  0
   10.4323   -5.3494   20.3516 C   0  0  0  0  0  0  0  0  0  0  0  0
    7.1156   -7.5454   16.8218 C   0  0  0  0  0  0  0  0  0  0  0  0
   10.3885   -4.4388   19.2773 C   0  0  0  0  0  0  0  0  0  0  0  0
    4.5160   -9.3822   15.0841 C   0  0  0  0  0  0  0  0  0  0  0  0
  1  3  4  0
  1 24  4  0
  2  6  4  0
  2 15  4  0
  3  5  4  0
  3  6  4  0
  4 21  4  0
  4 29  4  0
  5 15  4  0
  5 28  1  0
  6 16  4  0
  7 18  4  0
  7 26  4  0
  8 18  1  0
  8 19  4  0
  8 22  4  0
  9 12  4  0
  9 19  4  0
 10 12  4  0
 10 22  4  0
 11 20  4  0
 11 21  4  0
 12 23  1  0
 13 20  4  0
 13 29  4  0
 14 17  4  0
 14 28  4  0
 15 25  2  0
 16 27  4  0
 17 18  4  0
 20 27  1  0
 24 27  4  0
 26 28  4  0
M  END
$$$$

 Created by Python create_sdf_string function

 29 33  0  0  0  0  0  0  0  0999 V2000
    8.8270   -7.0288   18.4251 C   0  0  0  0  0  0  0  0  0  0  0  0
    9.1576   -4.6236   15.8860 O   0  0  0  0  0  0  0  0  0  0  0  0
    9.1509   -5.9108   17.7177 C   0  0  0  0  0  0  0  0  0  0  0  0
    3.6373   -9.5349   16.0582 N   0  0  0  0  0  0  0  0  0  0  0  0
    9.9275   -4.8001   18.0438 N   0  0  0  0  0  0  0  0  0  0  0  0
    8.5908   -5.7425   16.4412 C   0  0  0  0  0  0  0  0  0  0  0  0
   10.5993   -4.8981   21.6068 C   0  0  0  0  0  0  0  0  0  0  0  0
   10.4258   -3.0106   23.0998 C   0  0  0  0  0  0  0  0  0  0  0  0
   10.2148   -3.4364   25.4200 C   0  0  0  0  0  0  0  0  0  0  0  0
    9.7853   -1.1840   24.4927 C   0  0  0  0  0  0  0  0  0  0  0  0
    5.0276   -8.5227   17.5352 C   0  0  0  0  0  0  0  0  0  0  0  0
    9.8187   -2.0895   25.5800 C   0  0  0  0  0  0  0  0  0  0  0  0
    5.6473   -8.7216   15.3158 C   0  0  0  0  0  0  0  0  0  0  0  0
   10.7581   -3.1233   19.4720 N   0  0  0  0  0  0  0  0  0  0  0  0
    9.9571   -4.0573   16.8866 C   0  0  0  0  0  0  0  0  0  0  0  0
    7.6213   -6.5618   16.0087 C   0  0  0  0  0  0  0  0  0  0  0  0
   10.8583   -2.6527   20.7222 C   0  0  0  0  0  0  0  0  0  0  0  0
   10.6412   -3.5089   21.7936 C   0  0  0  0  0  0  0  0  0  0  0  0
   10.4972   -3.8968   24.1589 C   0  0  0  0  0  0  0  0  0  0  0  0
    5.9260   -8.2736   16.5517 C   0  0  0  0  0  0  0  0  0  0  0  0
    3.8816   -9.1166   17.2493 C   0  0  0  0  0  0  0  0  0  0  0  0
   10.1297   -1.6575   23.2324 C   0  0  0  0  0  0  0  0  0  0  0  0
    9.4684   -1.6929   26.7263 F   0  0  0  0  0  0  0  0  0  0  0  0
    7.7963   -7.7906   17.9837 C   0  0  0  0  0  0  0  0  0  0  0  0
   10.5884   -3.0725   16.7902 O   0  0  0  0  0  0  0  0  0  0  0  0
   10.4323   -5.3494   20.3516 C   0  0  0  0  0  0  0  0  0  0  0  0
    7.1156   -7.5454   16.8218 C   0  0  0  0  0  0  0  0  0  0  0  0
   10.3885   -4.4388   19.2773 C   0  0  0  0  0  0  0  0  0  0  0  0
    4.5160   -9.3822   15.0841 C   0  0  0  0  0  0  0  0  0  0  0  0
  1  3  4  0
  1 24  4  0
  2  6  4  0
  2 15  4  0
  3  5  4  0
  3  6  4  0
  4 21  4  0
  4 29  4  0
  5 15  4  0
  5 28  1  0
  6 16  4  0
  7 18  4  0
  7 26  4  0
  8 18  1  0
  8 19  4  0
  8 22  4  0
  9 12  4  0
  9 19  4  0
 10 12  4  0
 10 22  4  0
 11 20  4  0
 11 21  4  0
 12 23  1  0
 13 20  4  0
 13 29  4  0
 14 17  4  0
 14 28  4  0
 15 25  2  0
 16 27  4  0
 17 18  4  0
 20 27  1  0
 24 27  4  0
 26 28  4  0
M  END
$$$$

 Created by Python create_sdf_string function

 29 33  0  0  0  0  0  0  0  0999 V2000
    8.8270   -7.0288   18.4251 C   0  0  0  0  0  0  0  0  0  0  0  0
    9.1576   -4.6236   15.8860 O   0  0  0  0  0  0  0  0  0  0  0  0
    9.1509   -5.9108   17.7177 C   0  0  0  0  0  0  0  0  0  0  0  0
    3.6373   -9.5349   16.0582 N   0  0  0  0  0  0  0  0  0  0  0  0
    9.9275   -4.8001   18.0438 N   0  0  0  0  0  0  0  0  0  0  0  0
    8.5908   -5.7425   16.4412 C   0  0  0  0  0  0  0  0  0  0  0  0
   10.5993   -4.8981   21.6068 C   0  0  0  0  0  0  0  0  0  0  0  0
   10.4258   -3.0106   23.0998 C   0  0  0  0  0  0  0  0  0  0  0  0
   10.2148   -3.4364   25.4200 C   0  0  0  0  0  0  0  0  0  0  0  0
    9.7853   -1.1840   24.4927 C   0  0  0  0  0  0  0  0  0  0  0  0
    5.0276   -8.5227   17.5352 C   0  0  0  0  0  0  0  0  0  0  0  0
    9.8187   -2.0895   25.5800 C   0  0  0  0  0  0  0  0  0  0  0  0
    5.6473   -8.7216   15.3158 C   0  0  0  0  0  0  0  0  0  0  0  0
   10.7581   -3.1233   19.4720 N   0  0  0  0  0  0  0  0  0  0  0  0
    9.9571   -4.0573   16.8866 C   0  0  0  0  0  0  0  0  0  0  0  0
    7.6213   -6.5618   16.0087 C   0  0  0  0  0  0  0  0  0  0  0  0
   10.8583   -2.6527   20.7222 C   0  0  0  0  0  0  0  0  0  0  0  0
   10.6412   -3.5089   21.7936 C   0  0  0  0  0  0  0  0  0  0  0  0
   10.4972   -3.8968   24.1589 C   0  0  0  0  0  0  0  0  0  0  0  0
    5.9260   -8.2736   16.5517 C   0  0  0  0  0  0  0  0  0  0  0  0
    3.8816   -9.1166   17.2493 C   0  0  0  0  0  0  0  0  0  0  0  0
   10.1297   -1.6575   23.2324 C   0  0  0  0  0  0  0  0  0  0  0  0
    9.4684   -1.6929   26.7263 F   0  0  0  0  0  0  0  0  0  0  0  0
    7.7963   -7.7906   17.9837 C   0  0  0  0  0  0  0  0  0  0  0  0
   10.5884   -3.0725   16.7902 O   0  0  0  0  0  0  0  0  0  0  0  0
   10.4323   -5.3494   20.3516 C   0  0  0  0  0  0  0  0  0  0  0  0
    7.1156   -7.5454   16.8218 C   0  0  0  0  0  0  0  0  0  0  0  0
   10.3885   -4.4388   19.2773 C   0  0  0  0  0  0  0  0  0  0  0  0
    4.5160   -9.3822   15.0841 C   0  0  0  0  0  0  0  0  0  0  0  0
  1  3  4  0
  1 24  4  0
  2  6  4  0
  2 15  4  0
  3  5  4  0
  3  6  4  0
  4 21  4  0
  4 29  4  0
  5 15  4  0
  5 28  1  0
  6 16  4  0
  7 18  4  0
  7 26  4  0
  8 18  1  0
  8 19  4  0
  8 22  4  0
  9 12  4  0
  9 19  4  0
 10 12  4  0
 10 22  4  0
 11 20  4  0
 11 21  4  0
 12 23  1  0
 13 20  4  0
 13 29  4  0
 14 17  4  0
 14 28  4  0
 15 25  2  0
 16 27  4  0
 17 18  4  0
 20 27  1  0
 24 27  4  0
 26 28  4  0
M  END
$$$$

 Created by Python create_sdf_string function

 29 33  0  0  0  0  0  0  0  0999 V2000
    8.8270   -7.0288   18.4251 C   0  0  0  0  0  0  0  0  0  0  0  0
    9.1576   -4.6236   15.8860 O   0  0  0  0  0  0  0  0  0  0  0  0
    9.1509   -5.9108   17.7177 C   0  0  0  0  0  0  0  0  0  0  0  0
    3.6373   -9.5349   16.0582 N   0  0  0  0  0  0  0  0  0  0  0  0
    9.9275   -4.8001   18.0438 N   0  0  0  0  0  0  0  0  0  0  0  0
    8.5908   -5.7425   16.4412 C   0  0  0  0  0  0  0  0  0  0  0  0
   10.5993   -4.8981   21.6068 C   0  0  0  0  0  0  0  0  0  0  0  0
   10.4258   -3.0106   23.0998 C   0  0  0  0  0  0  0  0  0  0  0  0
   10.2148   -3.4364   25.4200 C   0  0  0  0  0  0  0  0  0  0  0  0
    9.7853   -1.1840   24.4927 C   0  0  0  0  0  0  0  0  0  0  0  0
    5.0276   -8.5227   17.5352 C   0  0  0  0  0  0  0  0  0  0  0  0
    9.8187   -2.0895   25.5800 C   0  0  0  0  0  0  0  0  0  0  0  0
    5.6473   -8.7216   15.3158 C   0  0  0  0  0  0  0  0  0  0  0  0
   10.7581   -3.1233   19.4720 N   0  0  0  0  0  0  0  0  0  0  0  0
    9.9571   -4.0573   16.8866 C   0  0  0  0  0  0  0  0  0  0  0  0
    7.6213   -6.5618   16.0087 C   0  0  0  0  0  0  0  0  0  0  0  0
   10.8583   -2.6527   20.7222 C   0  0  0  0  0  0  0  0  0  0  0  0
   10.6412   -3.5089   21.7936 C   0  0  0  0  0  0  0  0  0  0  0  0
   10.4972   -3.8968   24.1589 C   0  0  0  0  0  0  0  0  0  0  0  0
    5.9260   -8.2736   16.5517 C   0  0  0  0  0  0  0  0  0  0  0  0
    3.8816   -9.1166   17.2493 C   0  0  0  0  0  0  0  0  0  0  0  0
   10.1297   -1.6575   23.2324 C   0  0  0  0  0  0  0  0  0  0  0  0
    9.4684   -1.6929   26.7263 F   0  0  0  0  0  0  0  0  0  0  0  0
    7.7963   -7.7906   17.9837 C   0  0  0  0  0  0  0  0  0  0  0  0
   10.5884   -3.0725   16.7902 O   0  0  0  0  0  0  0  0  0  0  0  0
   10.4323   -5.3494   20.3516 C   0  0  0  0  0  0  0  0  0  0  0  0
    7.1156   -7.5454   16.8218 C   0  0  0  0  0  0  0  0  0  0  0  0
   10.3885   -4.4388   19.2773 C   0  0  0  0  0  0  0  0  0  0  0  0
    4.5160   -9.3822   15.0841 C   0  0  0  0  0  0  0  0  0  0  0  0
  1  3  4  0
  1 24  4  0
  2  6  4  0
  2 15  4  0
  3  5  4  0
  3  6  4  0
  4 21  4  0
  4 29  4  0
  5 15  4  0
  5 28  1  0
  6 16  4  0
  7 18  4  0
  7 26  4  0
  8 18  1  0
  8 19  4  0
  8 22  4  0
  9 12  4  0
  9 19  4  0
 10 12  4  0
 10 22  4  0
 11 20  4  0
 11 21  4  0
 12 23  1  0
 13 20  4  0
 13 29  4  0
 14 17  4  0
 14 28  4  0
 15 25  2  0
 16 27  4  0
 17 18  4  0
 20 27  1  0
 24 27  4  0
 26 28  4  0
M  END
$$$$

 Created by Python create_sdf_string function

 29 33  0  0  0  0  0  0  0  0999 V2000
    8.8270   -7.0288   18.4251 C   0  0  0  0  0  0  0  0  0  0  0  0
    9.1576   -4.6236   15.8860 O   0  0  0  0  0  0  0  0  0  0  0  0
    9.1509   -5.9108   17.7177 C   0  0  0  0  0  0  0  0  0  0  0  0
    3.6373   -9.5349   16.0582 N   0  0  0  0  0  0  0  0  0  0  0  0
    9.9275   -4.8001   18.0438 N   0  0  0  0  0  0  0  0  0  0  0  0
    8.5908   -5.7425   16.4412 C   0  0  0  0  0  0  0  0  0  0  0  0
   10.5993   -4.8981   21.6068 C   0  0  0  0  0  0  0  0  0  0  0  0
   10.4258   -3.0106   23.0998 C   0  0  0  0  0  0  0  0  0  0  0  0
   10.2148   -3.4364   25.4200 C   0  0  0  0  0  0  0  0  0  0  0  0
    9.7853   -1.1840   24.4927 C   0  0  0  0  0  0  0  0  0  0  0  0
    5.0276   -8.5227   17.5352 C   0  0  0  0  0  0  0  0  0  0  0  0
    9.8187   -2.0895   25.5800 C   0  0  0  0  0  0  0  0  0  0  0  0
    5.6473   -8.7216   15.3158 C   0  0  0  0  0  0  0  0  0  0  0  0
   10.7581   -3.1233   19.4720 N   0  0  0  0  0  0  0  0  0  0  0  0
    9.9571   -4.0573   16.8866 C   0  0  0  0  0  0  0  0  0  0  0  0
    7.6213   -6.5618   16.0087 C   0  0  0  0  0  0  0  0  0  0  0  0
   10.8583   -2.6527   20.7222 C   0  0  0  0  0  0  0  0  0  0  0  0
   10.6412   -3.5089   21.7936 C   0  0  0  0  0  0  0  0  0  0  0  0
   10.4972   -3.8968   24.1589 C   0  0  0  0  0  0  0  0  0  0  0  0
    5.9260   -8.2736   16.5517 C   0  0  0  0  0  0  0  0  0  0  0  0
    3.8816   -9.1166   17.2493 C   0  0  0  0  0  0  0  0  0  0  0  0
   10.1297   -1.6575   23.2324 C   0  0  0  0  0  0  0  0  0  0  0  0
    9.4684   -1.6929   26.7263 F   0  0  0  0  0  0  0  0  0  0  0  0
    7.7963   -7.7906   17.9837 C   0  0  0  0  0  0  0  0  0  0  0  0
   10.5884   -3.0725   16.7902 O   0  0  0  0  0  0  0  0  0  0  0  0
   10.4323   -5.3494   20.3516 C   0  0  0  0  0  0  0  0  0  0  0  0
    7.1156   -7.5454   16.8218 C   0  0  0  0  0  0  0  0  0  0  0  0
   10.3885   -4.4388   19.2773 C   0  0  0  0  0  0  0  0  0  0  0  0
    4.5160   -9.3822   15.0841 C   0  0  0  0  0  0  0  0  0  0  0  0
  1  3  4  0
  1 24  4  0
  2  6  4  0
  2 15  4  0
  3  5  4  0
  3  6  4  0
  4 21  4  0
  4 29  4  0
  5 15  4  0
  5 28  1  0
  6 16  4  0
  7 18  4  0
  7 26  4  0
  8 18  1  0
  8 19  4  0
  8 22  4  0
  9 12  4  0
  9 19  4  0
 10 12  4  0
 10 22  4  0
 11 20  4  0
 11 21  4  0
 12 23  1  0
 13 20  4  0
 13 29  4  0
 14 17  4  0
 14 28  4  0
 15 25  2  0
 16 27  4  0
 17 18  4  0
 20 27  1  0
 24 27  4  0
 26 28  4  0
M  END
$$$$

 Created by Python create_sdf_string function

 29 33  0  0  0  0  0  0  0  0999 V2000
    8.8270   -7.0288   18.4251 C   0  0  0  0  0  0  0  0  0  0  0  0
    9.1576   -4.6236   15.8860 O   0  0  0  0  0  0  0  0  0  0  0  0
    9.1509   -5.9108   17.7177 C   0  0  0  0  0  0  0  0  0  0  0  0
    3.6373   -9.5349   16.0582 N   0  0  0  0  0  0  0  0  0  0  0  0
    9.9275   -4.8001   18.0438 N   0  0  0  0  0  0  0  0  0  0  0  0
    8.5908   -5.7425   16.4412 C   0  0  0  0  0  0  0  0  0  0  0  0
   10.5993   -4.8981   21.6068 C   0  0  0  0  0  0  0  0  0  0  0  0
   10.4258   -3.0106   23.0998 C   0  0  0  0  0  0  0  0  0  0  0  0
   10.2148   -3.4364   25.4200 C   0  0  0  0  0  0  0  0  0  0  0  0
    9.7853   -1.1840   24.4927 C   0  0  0  0  0  0  0  0  0  0  0  0
    5.0276   -8.5227   17.5352 C   0  0  0  0  0  0  0  0  0  0  0  0
    9.8187   -2.0895   25.5800 C   0  0  0  0  0  0  0  0  0  0  0  0
    5.6473   -8.7216   15.3158 C   0  0  0  0  0  0  0  0  0  0  0  0
   10.7581   -3.1233   19.4720 N   0  0  0  0  0  0  0  0  0  0  0  0
    9.9571   -4.0573   16.8866 C   0  0  0  0  0  0  0  0  0  0  0  0
    7.6213   -6.5618   16.0087 C   0  0  0  0  0  0  0  0  0  0  0  0
   10.8583   -2.6527   20.7222 C   0  0  0  0  0  0  0  0  0  0  0  0
   10.6412   -3.5089   21.7936 C   0  0  0  0  0  0  0  0  0  0  0  0
   10.4972   -3.8968   24.1589 C   0  0  0  0  0  0  0  0  0  0  0  0
    5.9260   -8.2736   16.5517 C   0  0  0  0  0  0  0  0  0  0  0  0
    3.8816   -9.1166   17.2493 C   0  0  0  0  0  0  0  0  0  0  0  0
   10.1297   -1.6575   23.2324 C   0  0  0  0  0  0  0  0  0  0  0  0
    9.4684   -1.6929   26.7263 F   0  0  0  0  0  0  0  0  0  0  0  0
    7.7963   -7.7906   17.9837 C   0  0  0  0  0  0  0  0  0  0  0  0
   10.5884   -3.0725   16.7902 O   0  0  0  0  0  0  0  0  0  0  0  0
   10.4323   -5.3494   20.3516 C   0  0  0  0  0  0  0  0  0  0  0  0
    7.1156   -7.5454   16.8218 C   0  0  0  0  0  0  0  0  0  0  0  0
   10.3885   -4.4388   19.2773 C   0  0  0  0  0  0  0  0  0  0  0  0
    4.5160   -9.3822   15.0841 C   0  0  0  0  0  0  0  0  0  0  0  0
  1  3  4  0
  1 24  4  0
  2  6  4  0
  2 15  4  0
  3  5  4  0
  3  6  4  0
  4 21  4  0
  4 29  4  0
  5 15  4  0
  5 28  1  0
  6 16  4  0
  7 18  4  0
  7 26  4  0
  8 18  1  0
  8 19  4  0
  8 22  4  0
  9 12  4  0
  9 19  4  0
 10 12  4  0
 10 22  4  0
 11 20  4  0
 11 21  4  0
 12 23  1  0
 13 20  4  0
 13 29  4  0
 14 17  4  0
 14 28  4  0
 15 25  2  0
 16 27  4  0
 17 18  4  0
 20 27  1  0
 24 27  4  0
 26 28  4  0
M  END
$$$$

 Created by Python create_sdf_string function

 29 33  0  0  0  0  0  0  0  0999 V2000
    8.8270   -7.0288   18.4251 C   0  0  0  0  0  0  0  0  0  0  0  0
    9.1576   -4.6236   15.8860 O   0  0  0  0  0  0  0  0  0  0  0  0
    9.1509   -5.9108   17.7177 C   0  0  0  0  0  0  0  0  0  0  0  0
    3.6373   -9.5349   16.0582 N   0  0  0  0  0  0  0  0  0  0  0  0
    9.9275   -4.8001   18.0438 N   0  0  0  0  0  0  0  0  0  0  0  0
    8.5908   -5.7425   16.4412 C   0  0  0  0  0  0  0  0  0  0  0  0
   10.5993   -4.8981   21.6068 C   0  0  0  0  0  0  0  0  0  0  0  0
   10.4258   -3.0106   23.0998 C   0  0  0  0  0  0  0  0  0  0  0  0
   10.2148   -3.4364   25.4200 C   0  0  0  0  0  0  0  0  0  0  0  0
    9.7853   -1.1840   24.4927 C   0  0  0  0  0  0  0  0  0  0  0  0
    5.0276   -8.5227   17.5352 C   0  0  0  0  0  0  0  0  0  0  0  0
    9.8187   -2.0895   25.5800 C   0  0  0  0  0  0  0  0  0  0  0  0
    5.6473   -8.7216   15.3158 C   0  0  0  0  0  0  0  0  0  0  0  0
   10.7581   -3.1233   19.4720 N   0  0  0  0  0  0  0  0  0  0  0  0
    9.9571   -4.0573   16.8866 C   0  0  0  0  0  0  0  0  0  0  0  0
    7.6213   -6.5618   16.0087 C   0  0  0  0  0  0  0  0  0  0  0  0
   10.8583   -2.6527   20.7222 C   0  0  0  0  0  0  0  0  0  0  0  0
   10.6412   -3.5089   21.7936 C   0  0  0  0  0  0  0  0  0  0  0  0
   10.4972   -3.8968   24.1589 C   0  0  0  0  0  0  0  0  0  0  0  0
    5.9260   -8.2736   16.5517 C   0  0  0  0  0  0  0  0  0  0  0  0
    3.8816   -9.1166   17.2493 C   0  0  0  0  0  0  0  0  0  0  0  0
   10.1297   -1.6575   23.2324 C   0  0  0  0  0  0  0  0  0  0  0  0
    9.4684   -1.6929   26.7263 F   0  0  0  0  0  0  0  0  0  0  0  0
    7.7963   -7.7906   17.9837 C   0  0  0  0  0  0  0  0  0  0  0  0
   10.5884   -3.0725   16.7902 O   0  0  0  0  0  0  0  0  0  0  0  0
   10.4323   -5.3494   20.3516 C   0  0  0  0  0  0  0  0  0  0  0  0
    7.1156   -7.5454   16.8218 C   0  0  0  0  0  0  0  0  0  0  0  0
   10.3885   -4.4388   19.2773 C   0  0  0  0  0  0  0  0  0  0  0  0
    4.5160   -9.3822   15.0841 C   0  0  0  0  0  0  0  0  0  0  0  0
  1  3  4  0
  1 24  4  0
  2  6  4  0
  2 15  4  0
  3  5  4  0
  3  6  4  0
  4 21  4  0
  4 29  4  0
  5 15  4  0
  5 28  1  0
  6 16  4  0
  7 18  4  0
  7 26  4  0
  8 18  1  0
  8 19  4  0
  8 22  4  0
  9 12  4  0
  9 19  4  0
 10 12  4  0
 10 22  4  0
 11 20  4  0
 11 21  4  0
 12 23  1  0
 13 20  4  0
 13 29  4  0
 14 17  4  0
 14 28  4  0
 15 25  2  0
 16 27  4  0
 17 18  4  0
 20 27  1  0
 24 27  4  0
 26 28  4  0
M  END
$$$$

 Created by Python create_sdf_string function

 29 33  0  0  0  0  0  0  0  0999 V2000
    8.8270   -7.0288   18.4251 C   0  0  0  0  0  0  0  0  0  0  0  0
    9.1576   -4.6236   15.8860 O   0  0  0  0  0  0  0  0  0  0  0  0
    9.1509   -5.9108   17.7177 C   0  0  0  0  0  0  0  0  0  0  0  0
    3.6373   -9.5349   16.0582 N   0  0  0  0  0  0  0  0  0  0  0  0
    9.9275   -4.8001   18.0438 N   0  0  0  0  0  0  0  0  0  0  0  0
    8.5908   -5.7425   16.4412 C   0  0  0  0  0  0  0  0  0  0  0  0
   10.5993   -4.8981   21.6068 C   0  0  0  0  0  0  0  0  0  0  0  0
   10.4258   -3.0106   23.0998 C   0  0  0  0  0  0  0  0  0  0  0  0
   10.2148   -3.4364   25.4200 C   0  0  0  0  0  0  0  0  0  0  0  0
    9.7853   -1.1840   24.4927 C   0  0  0  0  0  0  0  0  0  0  0  0
    5.0276   -8.5227   17.5352 C   0  0  0  0  0  0  0  0  0  0  0  0
    9.8187   -2.0895   25.5800 C   0  0  0  0  0  0  0  0  0  0  0  0
    5.6473   -8.7216   15.3158 C   0  0  0  0  0  0  0  0  0  0  0  0
   10.7581   -3.1233   19.4720 N   0  0  0  0  0  0  0  0  0  0  0  0
    9.9571   -4.0573   16.8866 C   0  0  0  0  0  0  0  0  0  0  0  0
    7.6213   -6.5618   16.0087 C   0  0  0  0  0  0  0  0  0  0  0  0
   10.8583   -2.6527   20.7222 C   0  0  0  0  0  0  0  0  0  0  0  0
   10.6412   -3.5089   21.7936 C   0  0  0  0  0  0  0  0  0  0  0  0
   10.4972   -3.8968   24.1589 C   0  0  0  0  0  0  0  0  0  0  0  0
    5.9260   -8.2736   16.5517 C   0  0  0  0  0  0  0  0  0  0  0  0
    3.8816   -9.1166   17.2493 C   0  0  0  0  0  0  0  0  0  0  0  0
   10.1297   -1.6575   23.2324 C   0  0  0  0  0  0  0  0  0  0  0  0
    9.4684   -1.6929   26.7263 F   0  0  0  0  0  0  0  0  0  0  0  0
    7.7963   -7.7906   17.9837 C   0  0  0  0  0  0  0  0  0  0  0  0
   10.5884   -3.0725   16.7902 O   0  0  0  0  0  0  0  0  0  0  0  0
   10.4323   -5.3494   20.3516 C   0  0  0  0  0  0  0  0  0  0  0  0
    7.1156   -7.5454   16.8218 C   0  0  0  0  0  0  0  0  0  0  0  0
   10.3885   -4.4388   19.2773 C   0  0  0  0  0  0  0  0  0  0  0  0
    4.5160   -9.3822   15.0841 C   0  0  0  0  0  0  0  0  0  0  0  0
  1  3  4  0
  1 24  4  0
  2  6  4  0
  2 15  4  0
  3  5  4  0
  3  6  4  0
  4 21  4  0
  4 29  4  0
  5 15  4  0
  5 28  1  0
  6 16  4  0
  7 18  4  0
  7 26  4  0
  8 18  1  0
  8 19  4  0
  8 22  4  0
  9 12  4  0
  9 19  4  0
 10 12  4  0
 10 22  4  0
 11 20  4  0
 11 21  4  0
 12 23  1  0
 13 20  4  0
 13 29  4  0
 14 17  4  0
 14 28  4  0
 15 25  2  0
 16 27  4  0
 17 18  4  0
 20 27  1  0
 24 27  4  0
 26 28  4  0
M  END
$$$$

 Created by Python create_sdf_string function

 29 33  0  0  0  0  0  0  0  0999 V2000
    8.8270   -7.0288   18.4251 C   0  0  0  0  0  0  0  0  0  0  0  0
    9.1576   -4.6236   15.8860 O   0  0  0  0  0  0  0  0  0  0  0  0
    9.1509   -5.9108   17.7177 C   0  0  0  0  0  0  0  0  0  0  0  0
    3.6373   -9.5349   16.0582 N   0  0  0  0  0  0  0  0  0  0  0  0
    9.9275   -4.8001   18.0438 N   0  0  0  0  0  0  0  0  0  0  0  0
    8.5908   -5.7425   16.4412 C   0  0  0  0  0  0  0  0  0  0  0  0
   10.5993   -4.8981   21.6068 C   0  0  0  0  0  0  0  0  0  0  0  0
   10.4258   -3.0106   23.0998 C   0  0  0  0  0  0  0  0  0  0  0  0
   10.2148   -3.4364   25.4200 C   0  0  0  0  0  0  0  0  0  0  0  0
    9.7853   -1.1840   24.4927 C   0  0  0  0  0  0  0  0  0  0  0  0
    5.0276   -8.5227   17.5352 C   0  0  0  0  0  0  0  0  0  0  0  0
    9.8187   -2.0895   25.5800 C   0  0  0  0  0  0  0  0  0  0  0  0
    5.6473   -8.7216   15.3158 C   0  0  0  0  0  0  0  0  0  0  0  0
   10.7581   -3.1233   19.4720 N   0  0  0  0  0  0  0  0  0  0  0  0
    9.9571   -4.0573   16.8866 C   0  0  0  0  0  0  0  0  0  0  0  0
    7.6213   -6.5618   16.0087 C   0  0  0  0  0  0  0  0  0  0  0  0
   10.8583   -2.6527   20.7222 C   0  0  0  0  0  0  0  0  0  0  0  0
   10.6412   -3.5089   21.7936 C   0  0  0  0  0  0  0  0  0  0  0  0
   10.4972   -3.8968   24.1589 C   0  0  0  0  0  0  0  0  0  0  0  0
    5.9260   -8.2736   16.5517 C   0  0  0  0  0  0  0  0  0  0  0  0
    3.8816   -9.1166   17.2493 C   0  0  0  0  0  0  0  0  0  0  0  0
   10.1297   -1.6575   23.2324 C   0  0  0  0  0  0  0  0  0  0  0  0
    9.4684   -1.6929   26.7263 F   0  0  0  0  0  0  0  0  0  0  0  0
    7.7963   -7.7906   17.9837 C   0  0  0  0  0  0  0  0  0  0  0  0
   10.5884   -3.0725   16.7902 O   0  0  0  0  0  0  0  0  0  0  0  0
   10.4323   -5.3494   20.3516 C   0  0  0  0  0  0  0  0  0  0  0  0
    7.1156   -7.5454   16.8218 C   0  0  0  0  0  0  0  0  0  0  0  0
   10.3885   -4.4388   19.2773 C   0  0  0  0  0  0  0  0  0  0  0  0
    4.5160   -9.3822   15.0841 C   0  0  0  0  0  0  0  0  0  0  0  0
  1  3  4  0
  1 24  4  0
  2  6  4  0
  2 15  4  0
  3  5  4  0
  3  6  4  0
  4 21  4  0
  4 29  4  0
  5 15  4  0
  5 28  1  0
  6 16  4  0
  7 18  4  0
  7 26  4  0
  8 18  1  0
  8 19  4  0
  8 22  4  0
  9 12  4  0
  9 19  4  0
 10 12  4  0
 10 22  4  0
 11 20  4  0
 11 21  4  0
 12 23  1  0
 13 20  4  0
 13 29  4  0
 14 17  4  0
 14 28  4  0
 15 25  2  0
 16 27  4  0
 17 18  4  0
 20 27  1  0
 24 27  4  0
 26 28  4  0
M  END
$$$$

 Created by Python create_sdf_string function

 29 33  0  0  0  0  0  0  0  0999 V2000
    8.8270   -7.0288   18.4251 C   0  0  0  0  0  0  0  0  0  0  0  0
    9.1576   -4.6236   15.8860 O   0  0  0  0  0  0  0  0  0  0  0  0
    9.1509   -5.9108   17.7177 C   0  0  0  0  0  0  0  0  0  0  0  0
    3.6373   -9.5349   16.0582 N   0  0  0  0  0  0  0  0  0  0  0  0
    9.9275   -4.8001   18.0438 N   0  0  0  0  0  0  0  0  0  0  0  0
    8.5908   -5.7425   16.4412 C   0  0  0  0  0  0  0  0  0  0  0  0
   10.5993   -4.8981   21.6068 C   0  0  0  0  0  0  0  0  0  0  0  0
   10.4258   -3.0106   23.0998 C   0  0  0  0  0  0  0  0  0  0  0  0
   10.2148   -3.4364   25.4200 C   0  0  0  0  0  0  0  0  0  0  0  0
    9.7853   -1.1840   24.4927 C   0  0  0  0  0  0  0  0  0  0  0  0
    5.0276   -8.5227   17.5352 C   0  0  0  0  0  0  0  0  0  0  0  0
    9.8187   -2.0895   25.5800 C   0  0  0  0  0  0  0  0  0  0  0  0
    5.6473   -8.7216   15.3158 C   0  0  0  0  0  0  0  0  0  0  0  0
   10.7581   -3.1233   19.4720 N   0  0  0  0  0  0  0  0  0  0  0  0
    9.9571   -4.0573   16.8866 C   0  0  0  0  0  0  0  0  0  0  0  0
    7.6213   -6.5618   16.0087 C   0  0  0  0  0  0  0  0  0  0  0  0
   10.8583   -2.6527   20.7222 C   0  0  0  0  0  0  0  0  0  0  0  0
   10.6412   -3.5089   21.7936 C   0  0  0  0  0  0  0  0  0  0  0  0
   10.4972   -3.8968   24.1589 C   0  0  0  0  0  0  0  0  0  0  0  0
    5.9260   -8.2736   16.5517 C   0  0  0  0  0  0  0  0  0  0  0  0
    3.8816   -9.1166   17.2493 C   0  0  0  0  0  0  0  0  0  0  0  0
   10.1297   -1.6575   23.2324 C   0  0  0  0  0  0  0  0  0  0  0  0
    9.4684   -1.6929   26.7263 F   0  0  0  0  0  0  0  0  0  0  0  0
    7.7963   -7.7906   17.9837 C   0  0  0  0  0  0  0  0  0  0  0  0
   10.5884   -3.0725   16.7902 O   0  0  0  0  0  0  0  0  0  0  0  0
   10.4323   -5.3494   20.3516 C   0  0  0  0  0  0  0  0  0  0  0  0
    7.1156   -7.5454   16.8218 C   0  0  0  0  0  0  0  0  0  0  0  0
   10.3885   -4.4388   19.2773 C   0  0  0  0  0  0  0  0  0  0  0  0
    4.5160   -9.3822   15.0841 C   0  0  0  0  0  0  0  0  0  0  0  0
  1  3  4  0
  1 24  4  0
  2  6  4  0
  2 15  4  0
  3  5  4  0
  3  6  4  0
  4 21  4  0
  4 29  4  0
  5 15  4  0
  5 28  1  0
  6 16  4  0
  7 18  4  0
  7 26  4  0
  8 18  1  0
  8 19  4  0
  8 22  4  0
  9 12  4  0
  9 19  4  0
 10 12  4  0
 10 22  4  0
 11 20  4  0
 11 21  4  0
 12 23  1  0
 13 20  4  0
 13 29  4  0
 14 17  4  0
 14 28  4  0
 15 25  2  0
 16 27  4  0
 17 18  4  0
 20 27  1  0
 24 27  4  0
 26 28  4  0
M  END
$$$$

 Created by Python create_sdf_string function

 29 33  0  0  0  0  0  0  0  0999 V2000
    8.8270   -7.0288   18.4251 C   0  0  0  0  0  0  0  0  0  0  0  0
    9.1576   -4.6236   15.8860 O   0  0  0  0  0  0  0  0  0  0  0  0
    9.1509   -5.9108   17.7177 C   0  0  0  0  0  0  0  0  0  0  0  0
    3.6373   -9.5349   16.0582 N   0  0  0  0  0  0  0  0  0  0  0  0
    9.9275   -4.8001   18.0438 N   0  0  0  0  0  0  0  0  0  0  0  0
    8.5908   -5.7425   16.4412 C   0  0  0  0  0  0  0  0  0  0  0  0
   10.5993   -4.8981   21.6068 C   0  0  0  0  0  0  0  0  0  0  0  0
   10.4258   -3.0106   23.0998 C   0  0  0  0  0  0  0  0  0  0  0  0
   10.2148   -3.4364   25.4200 C   0  0  0  0  0  0  0  0  0  0  0  0
    9.7853   -1.1840   24.4927 C   0  0  0  0  0  0  0  0  0  0  0  0
    5.0276   -8.5227   17.5352 C   0  0  0  0  0  0  0  0  0  0  0  0
    9.8187   -2.0895   25.5800 C   0  0  0  0  0  0  0  0  0  0  0  0
    5.6473   -8.7216   15.3158 C   0  0  0  0  0  0  0  0  0  0  0  0
   10.7581   -3.1233   19.4720 N   0  0  0  0  0  0  0  0  0  0  0  0
    9.9571   -4.0573   16.8866 C   0  0  0  0  0  0  0  0  0  0  0  0
    7.6213   -6.5618   16.0087 C   0  0  0  0  0  0  0  0  0  0  0  0
   10.8583   -2.6527   20.7222 C   0  0  0  0  0  0  0  0  0  0  0  0
   10.6412   -3.5089   21.7936 C   0  0  0  0  0  0  0  0  0  0  0  0
   10.4972   -3.8968   24.1589 C   0  0  0  0  0  0  0  0  0  0  0  0
    5.9260   -8.2736   16.5517 C   0  0  0  0  0  0  0  0  0  0  0  0
    3.8816   -9.1166   17.2493 C   0  0  0  0  0  0  0  0  0  0  0  0
   10.1297   -1.6575   23.2324 C   0  0  0  0  0  0  0  0  0  0  0  0
    9.4684   -1.6929   26.7263 F   0  0  0  0  0  0  0  0  0  0  0  0
    7.7963   -7.7906   17.9837 C   0  0  0  0  0  0  0  0  0  0  0  0
   10.5884   -3.0725   16.7902 O   0  0  0  0  0  0  0  0  0  0  0  0
   10.4323   -5.3494   20.3516 C   0  0  0  0  0  0  0  0  0  0  0  0
    7.1156   -7.5454   16.8218 C   0  0  0  0  0  0  0  0  0  0  0  0
   10.3885   -4.4388   19.2773 C   0  0  0  0  0  0  0  0  0  0  0  0
    4.5160   -9.3822   15.0841 C   0  0  0  0  0  0  0  0  0  0  0  0
  1  3  4  0
  1 24  4  0
  2  6  4  0
  2 15  4  0
  3  5  4  0
  3  6  4  0
  4 21  4  0
  4 29  4  0
  5 15  4  0
  5 28  1  0
  6 16  4  0
  7 18  4  0
  7 26  4  0
  8 18  1  0
  8 19  4  0
  8 22  4  0
  9 12  4  0
  9 19  4  0
 10 12  4  0
 10 22  4  0
 11 20  4  0
 11 21  4  0
 12 23  1  0
 13 20  4  0
 13 29  4  0
 14 17  4  0
 14 28  4  0
 15 25  2  0
 16 27  4  0
 17 18  4  0
 20 27  1  0
 24 27  4  0
 26 28  4  0
M  END
$$$$

 Created by Python create_sdf_string function

 29 33  0  0  0  0  0  0  0  0999 V2000
    8.8270   -7.0288   18.4251 C   0  0  0  0  0  0  0  0  0  0  0  0
    9.1576   -4.6236   15.8860 O   0  0  0  0  0  0  0  0  0  0  0  0
    9.1509   -5.9108   17.7177 C   0  0  0  0  0  0  0  0  0  0  0  0
    3.6373   -9.5349   16.0582 N   0  0  0  0  0  0  0  0  0  0  0  0
    9.9275   -4.8001   18.0438 N   0  0  0  0  0  0  0  0  0  0  0  0
    8.5908   -5.7425   16.4412 C   0  0  0  0  0  0  0  0  0  0  0  0
   10.5993   -4.8981   21.6068 C   0  0  0  0  0  0  0  0  0  0  0  0
   10.4258   -3.0106   23.0998 C   0  0  0  0  0  0  0  0  0  0  0  0
   10.2148   -3.4364   25.4200 C   0  0  0  0  0  0  0  0  0  0  0  0
    9.7853   -1.1840   24.4927 C   0  0  0  0  0  0  0  0  0  0  0  0
    5.0276   -8.5227   17.5352 C   0  0  0  0  0  0  0  0  0  0  0  0
    9.8187   -2.0895   25.5800 C   0  0  0  0  0  0  0  0  0  0  0  0
    5.6473   -8.7216   15.3158 C   0  0  0  0  0  0  0  0  0  0  0  0
   10.7581   -3.1233   19.4720 N   0  0  0  0  0  0  0  0  0  0  0  0
    9.9571   -4.0573   16.8866 C   0  0  0  0  0  0  0  0  0  0  0  0
    7.6213   -6.5618   16.0087 C   0  0  0  0  0  0  0  0  0  0  0  0
   10.8583   -2.6527   20.7222 C   0  0  0  0  0  0  0  0  0  0  0  0
   10.6412   -3.5089   21.7936 C   0  0  0  0  0  0  0  0  0  0  0  0
   10.4972   -3.8968   24.1589 C   0  0  0  0  0  0  0  0  0  0  0  0
    5.9260   -8.2736   16.5517 C   0  0  0  0  0  0  0  0  0  0  0  0
    3.8816   -9.1166   17.2493 C   0  0  0  0  0  0  0  0  0  0  0  0
   10.1297   -1.6575   23.2324 C   0  0  0  0  0  0  0  0  0  0  0  0
    9.4684   -1.6929   26.7263 F   0  0  0  0  0  0  0  0  0  0  0  0
    7.7963   -7.7906   17.9837 C   0  0  0  0  0  0  0  0  0  0  0  0
   10.5884   -3.0725   16.7902 O   0  0  0  0  0  0  0  0  0  0  0  0
   10.4323   -5.3494   20.3516 C   0  0  0  0  0  0  0  0  0  0  0  0
    7.1156   -7.5454   16.8218 C   0  0  0  0  0  0  0  0  0  0  0  0
   10.3885   -4.4388   19.2773 C   0  0  0  0  0  0  0  0  0  0  0  0
    4.5160   -9.3822   15.0841 C   0  0  0  0  0  0  0  0  0  0  0  0
  1  3  4  0
  1 24  4  0
  2  6  4  0
  2 15  4  0
  3  5  4  0
  3  6  4  0
  4 21  4  0
  4 29  4  0
  5 15  4  0
  5 28  1  0
  6 16  4  0
  7 18  4  0
  7 26  4  0
  8 18  1  0
  8 19  4  0
  8 22  4  0
  9 12  4  0
  9 19  4  0
 10 12  4  0
 10 22  4  0
 11 20  4  0
 11 21  4  0
 12 23  1  0
 13 20  4  0
 13 29  4  0
 14 17  4  0
 14 28  4  0
 15 25  2  0
 16 27  4  0
 17 18  4  0
 20 27  1  0
 24 27  4  0
 26 28  4  0
M  END
$$$$

 Created by Python create_sdf_string function

 29 33  0  0  0  0  0  0  0  0999 V2000
    8.8270   -7.0288   18.4251 C   0  0  0  0  0  0  0  0  0  0  0  0
    9.1576   -4.6236   15.8860 O   0  0  0  0  0  0  0  0  0  0  0  0
    9.1509   -5.9108   17.7177 C   0  0  0  0  0  0  0  0  0  0  0  0
    3.6373   -9.5349   16.0582 N   0  0  0  0  0  0  0  0  0  0  0  0
    9.9275   -4.8001   18.0438 N   0  0  0  0  0  0  0  0  0  0  0  0
    8.5908   -5.7425   16.4412 C   0  0  0  0  0  0  0  0  0  0  0  0
   10.5993   -4.8981   21.6068 C   0  0  0  0  0  0  0  0  0  0  0  0
   10.4258   -3.0106   23.0998 C   0  0  0  0  0  0  0  0  0  0  0  0
   10.2148   -3.4364   25.4200 C   0  0  0  0  0  0  0  0  0  0  0  0
    9.7853   -1.1840   24.4927 C   0  0  0  0  0  0  0  0  0  0  0  0
    5.0276   -8.5227   17.5352 C   0  0  0  0  0  0  0  0  0  0  0  0
    9.8187   -2.0895   25.5800 C   0  0  0  0  0  0  0  0  0  0  0  0
    5.6473   -8.7216   15.3158 C   0  0  0  0  0  0  0  0  0  0  0  0
   10.7581   -3.1233   19.4720 N   0  0  0  0  0  0  0  0  0  0  0  0
    9.9571   -4.0573   16.8866 C   0  0  0  0  0  0  0  0  0  0  0  0
    7.6213   -6.5618   16.0087 C   0  0  0  0  0  0  0  0  0  0  0  0
   10.8583   -2.6527   20.7222 C   0  0  0  0  0  0  0  0  0  0  0  0
   10.6412   -3.5089   21.7936 C   0  0  0  0  0  0  0  0  0  0  0  0
   10.4972   -3.8968   24.1589 C   0  0  0  0  0  0  0  0  0  0  0  0
    5.9260   -8.2736   16.5517 C   0  0  0  0  0  0  0  0  0  0  0  0
    3.8816   -9.1166   17.2493 C   0  0  0  0  0  0  0  0  0  0  0  0
   10.1297   -1.6575   23.2324 C   0  0  0  0  0  0  0  0  0  0  0  0
    9.4684   -1.6929   26.7263 F   0  0  0  0  0  0  0  0  0  0  0  0
    7.7963   -7.7906   17.9837 C   0  0  0  0  0  0  0  0  0  0  0  0
   10.5884   -3.0725   16.7902 O   0  0  0  0  0  0  0  0  0  0  0  0
   10.4323   -5.3494   20.3516 C   0  0  0  0  0  0  0  0  0  0  0  0
    7.1156   -7.5454   16.8218 C   0  0  0  0  0  0  0  0  0  0  0  0
   10.3885   -4.4388   19.2773 C   0  0  0  0  0  0  0  0  0  0  0  0
    4.5160   -9.3822   15.0841 C   0  0  0  0  0  0  0  0  0  0  0  0
  1  3  4  0
  1 24  4  0
  2  6  4  0
  2 15  4  0
  3  5  4  0
  3  6  4  0
  4 21  4  0
  4 29  4  0
  5 15  4  0
  5 28  1  0
  6 16  4  0
  7 18  4  0
  7 26  4  0
  8 18  1  0
  8 19  4  0
  8 22  4  0
  9 12  4  0
  9 19  4  0
 10 12  4  0
 10 22  4  0
 11 20  4  0
 11 21  4  0
 12 23  1  0
 13 20  4  0
 13 29  4  0
 14 17  4  0
 14 28  4  0
 15 25  2  0
 16 27  4  0
 17 18  4  0
 20 27  1  0
 24 27  4  0
 26 28  4  0
M  END
$$$$

 Created by Python create_sdf_string function

 29 33  0  0  0  0  0  0  0  0999 V2000
    8.8270   -7.0288   18.4251 C   0  0  0  0  0  0  0  0  0  0  0  0
    9.1576   -4.6236   15.8860 O   0  0  0  0  0  0  0  0  0  0  0  0
    9.1509   -5.9108   17.7177 C   0  0  0  0  0  0  0  0  0  0  0  0
    3.6373   -9.5349   16.0582 N   0  0  0  0  0  0  0  0  0  0  0  0
    9.9275   -4.8001   18.0438 N   0  0  0  0  0  0  0  0  0  0  0  0
    8.5908   -5.7425   16.4412 C   0  0  0  0  0  0  0  0  0  0  0  0
   10.5993   -4.8981   21.6068 C   0  0  0  0  0  0  0  0  0  0  0  0
   10.4258   -3.0106   23.0998 C   0  0  0  0  0  0  0  0  0  0  0  0
   10.2148   -3.4364   25.4200 C   0  0  0  0  0  0  0  0  0  0  0  0
    9.7853   -1.1840   24.4927 C   0  0  0  0  0  0  0  0  0  0  0  0
    5.0276   -8.5227   17.5352 C   0  0  0  0  0  0  0  0  0  0  0  0
    9.8187   -2.0895   25.5800 C   0  0  0  0  0  0  0  0  0  0  0  0
    5.6473   -8.7216   15.3158 C   0  0  0  0  0  0  0  0  0  0  0  0
   10.7581   -3.1233   19.4720 N   0  0  0  0  0  0  0  0  0  0  0  0
    9.9571   -4.0573   16.8866 C   0  0  0  0  0  0  0  0  0  0  0  0
    7.6213   -6.5618   16.0087 C   0  0  0  0  0  0  0  0  0  0  0  0
   10.8583   -2.6527   20.7222 C   0  0  0  0  0  0  0  0  0  0  0  0
   10.6412   -3.5089   21.7936 C   0  0  0  0  0  0  0  0  0  0  0  0
   10.4972   -3.8968   24.1589 C   0  0  0  0  0  0  0  0  0  0  0  0
    5.9260   -8.2736   16.5517 C   0  0  0  0  0  0  0  0  0  0  0  0
    3.8816   -9.1166   17.2493 C   0  0  0  0  0  0  0  0  0  0  0  0
   10.1297   -1.6575   23.2324 C   0  0  0  0  0  0  0  0  0  0  0  0
    9.4684   -1.6929   26.7263 F   0  0  0  0  0  0  0  0  0  0  0  0
    7.7963   -7.7906   17.9837 C   0  0  0  0  0  0  0  0  0  0  0  0
   10.5884   -3.0725   16.7902 O   0  0  0  0  0  0  0  0  0  0  0  0
   10.4323   -5.3494   20.3516 C   0  0  0  0  0  0  0  0  0  0  0  0
    7.1156   -7.5454   16.8218 C   0  0  0  0  0  0  0  0  0  0  0  0
   10.3885   -4.4388   19.2773 C   0  0  0  0  0  0  0  0  0  0  0  0
    4.5160   -9.3822   15.0841 C   0  0  0  0  0  0  0  0  0  0  0  0
  1  3  4  0
  1 24  4  0
  2  6  4  0
  2 15  4  0
  3  5  4  0
  3  6  4  0
  4 21  4  0
  4 29  4  0
  5 15  4  0
  5 28  1  0
  6 16  4  0
  7 18  4  0
  7 26  4  0
  8 18  1  0
  8 19  4  0
  8 22  4  0
  9 12  4  0
  9 19  4  0
 10 12  4  0
 10 22  4  0
 11 20  4  0
 11 21  4  0
 12 23  1  0
 13 20  4  0
 13 29  4  0
 14 17  4  0
 14 28  4  0
 15 25  2  0
 16 27  4  0
 17 18  4  0
 20 27  1  0
 24 27  4  0
 26 28  4  0
M  END
$$$$

 Created by Python create_sdf_string function

 29 33  0  0  0  0  0  0  0  0999 V2000
    8.8270   -7.0288   18.4251 C   0  0  0  0  0  0  0  0  0  0  0  0
    9.1576   -4.6236   15.8860 O   0  0  0  0  0  0  0  0  0  0  0  0
    9.1509   -5.9108   17.7177 C   0  0  0  0  0  0  0  0  0  0  0  0
    3.6373   -9.5349   16.0582 N   0  0  0  0  0  0  0  0  0  0  0  0
    9.9275   -4.8001   18.0438 N   0  0  0  0  0  0  0  0  0  0  0  0
    8.5908   -5.7425   16.4412 C   0  0  0  0  0  0  0  0  0  0  0  0
   10.5993   -4.8981   21.6068 C   0  0  0  0  0  0  0  0  0  0  0  0
   10.4258   -3.0106   23.0998 C   0  0  0  0  0  0  0  0  0  0  0  0
   10.2148   -3.4364   25.4200 C   0  0  0  0  0  0  0  0  0  0  0  0
    9.7853   -1.1840   24.4927 C   0  0  0  0  0  0  0  0  0  0  0  0
    5.0276   -8.5227   17.5352 C   0  0  0  0  0  0  0  0  0  0  0  0
    9.8187   -2.0895   25.5800 C   0  0  0  0  0  0  0  0  0  0  0  0
    5.6473   -8.7216   15.3158 C   0  0  0  0  0  0  0  0  0  0  0  0
   10.7581   -3.1233   19.4720 N   0  0  0  0  0  0  0  0  0  0  0  0
    9.9571   -4.0573   16.8866 C   0  0  0  0  0  0  0  0  0  0  0  0
    7.6213   -6.5618   16.0087 C   0  0  0  0  0  0  0  0  0  0  0  0
   10.8583   -2.6527   20.7222 C   0  0  0  0  0  0  0  0  0  0  0  0
   10.6412   -3.5089   21.7936 C   0  0  0  0  0  0  0  0  0  0  0  0
   10.4972   -3.8968   24.1589 C   0  0  0  0  0  0  0  0  0  0  0  0
    5.9260   -8.2736   16.5517 C   0  0  0  0  0  0  0  0  0  0  0  0
    3.8816   -9.1166   17.2493 C   0  0  0  0  0  0  0  0  0  0  0  0
   10.1297   -1.6575   23.2324 C   0  0  0  0  0  0  0  0  0  0  0  0
    9.4684   -1.6929   26.7263 F   0  0  0  0  0  0  0  0  0  0  0  0
    7.7963   -7.7906   17.9837 C   0  0  0  0  0  0  0  0  0  0  0  0
   10.5884   -3.0725   16.7902 O   0  0  0  0  0  0  0  0  0  0  0  0
   10.4323   -5.3494   20.3516 C   0  0  0  0  0  0  0  0  0  0  0  0
    7.1156   -7.5454   16.8218 C   0  0  0  0  0  0  0  0  0  0  0  0
   10.3885   -4.4388   19.2773 C   0  0  0  0  0  0  0  0  0  0  0  0
    4.5160   -9.3822   15.0841 C   0  0  0  0  0  0  0  0  0  0  0  0
  1  3  4  0
  1 24  4  0
  2  6  4  0
  2 15  4  0
  3  5  4  0
  3  6  4  0
  4 21  4  0
  4 29  4  0
  5 15  4  0
  5 28  1  0
  6 16  4  0
  7 18  4  0
  7 26  4  0
  8 18  1  0
  8 19  4  0
  8 22  4  0
  9 12  4  0
  9 19  4  0
 10 12  4  0
 10 22  4  0
 11 20  4  0
 11 21  4  0
 12 23  1  0
 13 20  4  0
 13 29  4  0
 14 17  4  0
 14 28  4  0
 15 25  2  0
 16 27  4  0
 17 18  4  0
 20 27  1  0
 24 27  4  0
 26 28  4  0
M  END
$$$$

 Created by Python create_sdf_string function

 29 33  0  0  0  0  0  0  0  0999 V2000
    8.8270   -7.0288   18.4251 C   0  0  0  0  0  0  0  0  0  0  0  0
    9.1576   -4.6236   15.8860 O   0  0  0  0  0  0  0  0  0  0  0  0
    9.1509   -5.9108   17.7177 C   0  0  0  0  0  0  0  0  0  0  0  0
    3.6373   -9.5349   16.0582 N   0  0  0  0  0  0  0  0  0  0  0  0
    9.9275   -4.8001   18.0438 N   0  0  0  0  0  0  0  0  0  0  0  0
    8.5908   -5.7425   16.4412 C   0  0  0  0  0  0  0  0  0  0  0  0
   10.5993   -4.8981   21.6068 C   0  0  0  0  0  0  0  0  0  0  0  0
   10.4258   -3.0106   23.0998 C   0  0  0  0  0  0  0  0  0  0  0  0
   10.2148   -3.4364   25.4200 C   0  0  0  0  0  0  0  0  0  0  0  0
    9.7853   -1.1840   24.4927 C   0  0  0  0  0  0  0  0  0  0  0  0
    5.0276   -8.5227   17.5352 C   0  0  0  0  0  0  0  0  0  0  0  0
    9.8187   -2.0895   25.5800 C   0  0  0  0  0  0  0  0  0  0  0  0
    5.6473   -8.7216   15.3158 C   0  0  0  0  0  0  0  0  0  0  0  0
   10.7581   -3.1233   19.4720 N   0  0  0  0  0  0  0  0  0  0  0  0
    9.9571   -4.0573   16.8866 C   0  0  0  0  0  0  0  0  0  0  0  0
    7.6213   -6.5618   16.0087 C   0  0  0  0  0  0  0  0  0  0  0  0
   10.8583   -2.6527   20.7222 C   0  0  0  0  0  0  0  0  0  0  0  0
   10.6412   -3.5089   21.7936 C   0  0  0  0  0  0  0  0  0  0  0  0
   10.4972   -3.8968   24.1589 C   0  0  0  0  0  0  0  0  0  0  0  0
    5.9260   -8.2736   16.5517 C   0  0  0  0  0  0  0  0  0  0  0  0
    3.8816   -9.1166   17.2493 C   0  0  0  0  0  0  0  0  0  0  0  0
   10.1297   -1.6575   23.2324 C   0  0  0  0  0  0  0  0  0  0  0  0
    9.4684   -1.6929   26.7263 F   0  0  0  0  0  0  0  0  0  0  0  0
    7.7963   -7.7906   17.9837 C   0  0  0  0  0  0  0  0  0  0  0  0
   10.5884   -3.0725   16.7902 O   0  0  0  0  0  0  0  0  0  0  0  0
   10.4323   -5.3494   20.3516 C   0  0  0  0  0  0  0  0  0  0  0  0
    7.1156   -7.5454   16.8218 C   0  0  0  0  0  0  0  0  0  0  0  0
   10.3885   -4.4388   19.2773 C   0  0  0  0  0  0  0  0  0  0  0  0
    4.5160   -9.3822   15.0841 C   0  0  0  0  0  0  0  0  0  0  0  0
  1  3  4  0
  1 24  4  0
  2  6  4  0
  2 15  4  0
  3  5  4  0
  3  6  4  0
  4 21  4  0
  4 29  4  0
  5 15  4  0
  5 28  1  0
  6 16  4  0
  7 18  4  0
  7 26  4  0
  8 18  1  0
  8 19  4  0
  8 22  4  0
  9 12  4  0
  9 19  4  0
 10 12  4  0
 10 22  4  0
 11 20  4  0
 11 21  4  0
 12 23  1  0
 13 20  4  0
 13 29  4  0
 14 17  4  0
 14 28  4  0
 15 25  2  0
 16 27  4  0
 17 18  4  0
 20 27  1  0
 24 27  4  0
 26 28  4  0
M  END
$$$$

 Created by Python create_sdf_string function

 29 33  0  0  0  0  0  0  0  0999 V2000
    8.8270   -7.0288   18.4251 C   0  0  0  0  0  0  0  0  0  0  0  0
    9.1576   -4.6236   15.8860 O   0  0  0  0  0  0  0  0  0  0  0  0
    9.1509   -5.9108   17.7177 C   0  0  0  0  0  0  0  0  0  0  0  0
    3.6373   -9.5349   16.0582 N   0  0  0  0  0  0  0  0  0  0  0  0
    9.9275   -4.8001   18.0438 N   0  0  0  0  0  0  0  0  0  0  0  0
    8.5908   -5.7425   16.4412 C   0  0  0  0  0  0  0  0  0  0  0  0
   10.5993   -4.8981   21.6068 C   0  0  0  0  0  0  0  0  0  0  0  0
   10.4258   -3.0106   23.0998 C   0  0  0  0  0  0  0  0  0  0  0  0
   10.2148   -3.4364   25.4200 C   0  0  0  0  0  0  0  0  0  0  0  0
    9.7853   -1.1840   24.4927 C   0  0  0  0  0  0  0  0  0  0  0  0
    5.0276   -8.5227   17.5352 C   0  0  0  0  0  0  0  0  0  0  0  0
    9.8187   -2.0895   25.5800 C   0  0  0  0  0  0  0  0  0  0  0  0
    5.6473   -8.7216   15.3158 C   0  0  0  0  0  0  0  0  0  0  0  0
   10.7581   -3.1233   19.4720 N   0  0  0  0  0  0  0  0  0  0  0  0
    9.9571   -4.0573   16.8866 C   0  0  0  0  0  0  0  0  0  0  0  0
    7.6213   -6.5618   16.0087 C   0  0  0  0  0  0  0  0  0  0  0  0
   10.8583   -2.6527   20.7222 C   0  0  0  0  0  0  0  0  0  0  0  0
   10.6412   -3.5089   21.7936 C   0  0  0  0  0  0  0  0  0  0  0  0
   10.4972   -3.8968   24.1589 C   0  0  0  0  0  0  0  0  0  0  0  0
    5.9260   -8.2736   16.5517 C   0  0  0  0  0  0  0  0  0  0  0  0
    3.8816   -9.1166   17.2493 C   0  0  0  0  0  0  0  0  0  0  0  0
   10.1297   -1.6575   23.2324 C   0  0  0  0  0  0  0  0  0  0  0  0
    9.4684   -1.6929   26.7263 F   0  0  0  0  0  0  0  0  0  0  0  0
    7.7963   -7.7906   17.9837 C   0  0  0  0  0  0  0  0  0  0  0  0
   10.5884   -3.0725   16.7902 O   0  0  0  0  0  0  0  0  0  0  0  0
   10.4323   -5.3494   20.3516 C   0  0  0  0  0  0  0  0  0  0  0  0
    7.1156   -7.5454   16.8218 C   0  0  0  0  0  0  0  0  0  0  0  0
   10.3885   -4.4388   19.2773 C   0  0  0  0  0  0  0  0  0  0  0  0
    4.5160   -9.3822   15.0841 C   0  0  0  0  0  0  0  0  0  0  0  0
  1  3  4  0
  1 24  4  0
  2  6  4  0
  2 15  4  0
  3  5  4  0
  3  6  4  0
  4 21  4  0
  4 29  4  0
  5 15  4  0
  5 28  1  0
  6 16  4  0
  7 18  4  0
  7 26  4  0
  8 18  1  0
  8 19  4  0
  8 22  4  0
  9 12  4  0
  9 19  4  0
 10 12  4  0
 10 22  4  0
 11 20  4  0
 11 21  4  0
 12 23  1  0
 13 20  4  0
 13 29  4  0
 14 17  4  0
 14 28  4  0
 15 25  2  0
 16 27  4  0
 17 18  4  0
 20 27  1  0
 24 27  4  0
 26 28  4  0
M  END
$$$$

 Created by Python create_sdf_string function

 29 33  0  0  0  0  0  0  0  0999 V2000
    8.8270   -7.0288   18.4251 C   0  0  0  0  0  0  0  0  0  0  0  0
    9.1576   -4.6236   15.8860 O   0  0  0  0  0  0  0  0  0  0  0  0
    9.1509   -5.9108   17.7177 C   0  0  0  0  0  0  0  0  0  0  0  0
    3.6373   -9.5349   16.0582 N   0  0  0  0  0  0  0  0  0  0  0  0
    9.9275   -4.8001   18.0438 N   0  0  0  0  0  0  0  0  0  0  0  0
    8.5908   -5.7425   16.4412 C   0  0  0  0  0  0  0  0  0  0  0  0
   10.5993   -4.8981   21.6068 C   0  0  0  0  0  0  0  0  0  0  0  0
   10.4258   -3.0106   23.0998 C   0  0  0  0  0  0  0  0  0  0  0  0
   10.2148   -3.4364   25.4200 C   0  0  0  0  0  0  0  0  0  0  0  0
    9.7853   -1.1840   24.4927 C   0  0  0  0  0  0  0  0  0  0  0  0
    5.0276   -8.5227   17.5352 C   0  0  0  0  0  0  0  0  0  0  0  0
    9.8187   -2.0895   25.5800 C   0  0  0  0  0  0  0  0  0  0  0  0
    5.6473   -8.7216   15.3158 C   0  0  0  0  0  0  0  0  0  0  0  0
   10.7581   -3.1233   19.4720 N   0  0  0  0  0  0  0  0  0  0  0  0
    9.9571   -4.0573   16.8866 C   0  0  0  0  0  0  0  0  0  0  0  0
    7.6213   -6.5618   16.0087 C   0  0  0  0  0  0  0  0  0  0  0  0
   10.8583   -2.6527   20.7222 C   0  0  0  0  0  0  0  0  0  0  0  0
   10.6412   -3.5089   21.7936 C   0  0  0  0  0  0  0  0  0  0  0  0
   10.4972   -3.8968   24.1589 C   0  0  0  0  0  0  0  0  0  0  0  0
    5.9260   -8.2736   16.5517 C   0  0  0  0  0  0  0  0  0  0  0  0
    3.8816   -9.1166   17.2493 C   0  0  0  0  0  0  0  0  0  0  0  0
   10.1297   -1.6575   23.2324 C   0  0  0  0  0  0  0  0  0  0  0  0
    9.4684   -1.6929   26.7263 F   0  0  0  0  0  0  0  0  0  0  0  0
    7.7963   -7.7906   17.9837 C   0  0  0  0  0  0  0  0  0  0  0  0
   10.5884   -3.0725   16.7902 O   0  0  0  0  0  0  0  0  0  0  0  0
   10.4323   -5.3494   20.3516 C   0  0  0  0  0  0  0  0  0  0  0  0
    7.1156   -7.5454   16.8218 C   0  0  0  0  0  0  0  0  0  0  0  0
   10.3885   -4.4388   19.2773 C   0  0  0  0  0  0  0  0  0  0  0  0
    4.5160   -9.3822   15.0841 C   0  0  0  0  0  0  0  0  0  0  0  0
  1  3  4  0
  1 24  4  0
  2  6  4  0
  2 15  4  0
  3  5  4  0
  3  6  4  0
  4 21  4  0
  4 29  4  0
  5 15  4  0
  5 28  1  0
  6 16  4  0
  7 18  4  0
  7 26  4  0
  8 18  1  0
  8 19  4  0
  8 22  4  0
  9 12  4  0
  9 19  4  0
 10 12  4  0
 10 22  4  0
 11 20  4  0
 11 21  4  0
 12 23  1  0
 13 20  4  0
 13 29  4  0
 14 17  4  0
 14 28  4  0
 15 25  2  0
 16 27  4  0
 17 18  4  0
 20 27  1  0
 24 27  4  0
 26 28  4  0
M  END
$$$$

 Created by Python create_sdf_string function

 29 33  0  0  0  0  0  0  0  0999 V2000
    8.8270   -7.0288   18.4251 C   0  0  0  0  0  0  0  0  0  0  0  0
    9.1576   -4.6236   15.8860 O   0  0  0  0  0  0  0  0  0  0  0  0
    9.1509   -5.9108   17.7177 C   0  0  0  0  0  0  0  0  0  0  0  0
    3.6373   -9.5349   16.0582 N   0  0  0  0  0  0  0  0  0  0  0  0
    9.9275   -4.8001   18.0438 N   0  0  0  0  0  0  0  0  0  0  0  0
    8.5908   -5.7425   16.4412 C   0  0  0  0  0  0  0  0  0  0  0  0
   10.5993   -4.8981   21.6068 C   0  0  0  0  0  0  0  0  0  0  0  0
   10.4258   -3.0106   23.0998 C   0  0  0  0  0  0  0  0  0  0  0  0
   10.2148   -3.4364   25.4200 C   0  0  0  0  0  0  0  0  0  0  0  0
    9.7853   -1.1840   24.4927 C   0  0  0  0  0  0  0  0  0  0  0  0
    5.0276   -8.5227   17.5352 C   0  0  0  0  0  0  0  0  0  0  0  0
    9.8187   -2.0895   25.5800 C   0  0  0  0  0  0  0  0  0  0  0  0
    5.6473   -8.7216   15.3158 C   0  0  0  0  0  0  0  0  0  0  0  0
   10.7581   -3.1233   19.4720 N   0  0  0  0  0  0  0  0  0  0  0  0
    9.9571   -4.0573   16.8866 C   0  0  0  0  0  0  0  0  0  0  0  0
    7.6213   -6.5618   16.0087 C   0  0  0  0  0  0  0  0  0  0  0  0
   10.8583   -2.6527   20.7222 C   0  0  0  0  0  0  0  0  0  0  0  0
   10.6412   -3.5089   21.7936 C   0  0  0  0  0  0  0  0  0  0  0  0
   10.4972   -3.8968   24.1589 C   0  0  0  0  0  0  0  0  0  0  0  0
    5.9260   -8.2736   16.5517 C   0  0  0  0  0  0  0  0  0  0  0  0
    3.8816   -9.1166   17.2493 C   0  0  0  0  0  0  0  0  0  0  0  0
   10.1297   -1.6575   23.2324 C   0  0  0  0  0  0  0  0  0  0  0  0
    9.4684   -1.6929   26.7263 F   0  0  0  0  0  0  0  0  0  0  0  0
    7.7963   -7.7906   17.9837 C   0  0  0  0  0  0  0  0  0  0  0  0
   10.5884   -3.0725   16.7902 O   0  0  0  0  0  0  0  0  0  0  0  0
   10.4323   -5.3494   20.3516 C   0  0  0  0  0  0  0  0  0  0  0  0
    7.1156   -7.5454   16.8218 C   0  0  0  0  0  0  0  0  0  0  0  0
   10.3885   -4.4388   19.2773 C   0  0  0  0  0  0  0  0  0  0  0  0
    4.5160   -9.3822   15.0841 C   0  0  0  0  0  0  0  0  0  0  0  0
  1  3  4  0
  1 24  4  0
  2  6  4  0
  2 15  4  0
  3  5  4  0
  3  6  4  0
  4 21  4  0
  4 29  4  0
  5 15  4  0
  5 28  1  0
  6 16  4  0
  7 18  4  0
  7 26  4  0
  8 18  1  0
  8 19  4  0
  8 22  4  0
  9 12  4  0
  9 19  4  0
 10 12  4  0
 10 22  4  0
 11 20  4  0
 11 21  4  0
 12 23  1  0
 13 20  4  0
 13 29  4  0
 14 17  4  0
 14 28  4  0
 15 25  2  0
 16 27  4  0
 17 18  4  0
 20 27  1  0
 24 27  4  0
 26 28  4  0
M  END
$$$$

 Created by Python create_sdf_string function

 29 33  0  0  0  0  0  0  0  0999 V2000
    8.8270   -7.0288   18.4251 C   0  0  0  0  0  0  0  0  0  0  0  0
    9.1576   -4.6236   15.8860 O   0  0  0  0  0  0  0  0  0  0  0  0
    9.1509   -5.9108   17.7177 C   0  0  0  0  0  0  0  0  0  0  0  0
    3.6373   -9.5349   16.0582 N   0  0  0  0  0  0  0  0  0  0  0  0
    9.9275   -4.8001   18.0438 N   0  0  0  0  0  0  0  0  0  0  0  0
    8.5908   -5.7425   16.4412 C   0  0  0  0  0  0  0  0  0  0  0  0
   10.5993   -4.8981   21.6068 C   0  0  0  0  0  0  0  0  0  0  0  0
   10.4258   -3.0106   23.0998 C   0  0  0  0  0  0  0  0  0  0  0  0
   10.2148   -3.4364   25.4200 C   0  0  0  0  0  0  0  0  0  0  0  0
    9.7853   -1.1840   24.4927 C   0  0  0  0  0  0  0  0  0  0  0  0
    5.0276   -8.5227   17.5352 C   0  0  0  0  0  0  0  0  0  0  0  0
    9.8187   -2.0895   25.5800 C   0  0  0  0  0  0  0  0  0  0  0  0
    5.6473   -8.7216   15.3158 C   0  0  0  0  0  0  0  0  0  0  0  0
   10.7581   -3.1233   19.4720 N   0  0  0  0  0  0  0  0  0  0  0  0
    9.9571   -4.0573   16.8866 C   0  0  0  0  0  0  0  0  0  0  0  0
    7.6213   -6.5618   16.0087 C   0  0  0  0  0  0  0  0  0  0  0  0
   10.8583   -2.6527   20.7222 C   0  0  0  0  0  0  0  0  0  0  0  0
   10.6412   -3.5089   21.7936 C   0  0  0  0  0  0  0  0  0  0  0  0
   10.4972   -3.8968   24.1589 C   0  0  0  0  0  0  0  0  0  0  0  0
    5.9260   -8.2736   16.5517 C   0  0  0  0  0  0  0  0  0  0  0  0
    3.8816   -9.1166   17.2493 C   0  0  0  0  0  0  0  0  0  0  0  0
   10.1297   -1.6575   23.2324 C   0  0  0  0  0  0  0  0  0  0  0  0
    9.4684   -1.6929   26.7263 F   0  0  0  0  0  0  0  0  0  0  0  0
    7.7963   -7.7906   17.9837 C   0  0  0  0  0  0  0  0  0  0  0  0
   10.5884   -3.0725   16.7902 O   0  0  0  0  0  0  0  0  0  0  0  0
   10.4323   -5.3494   20.3516 C   0  0  0  0  0  0  0  0  0  0  0  0
    7.1156   -7.5454   16.8218 C   0  0  0  0  0  0  0  0  0  0  0  0
   10.3885   -4.4388   19.2773 C   0  0  0  0  0  0  0  0  0  0  0  0
    4.5160   -9.3822   15.0841 C   0  0  0  0  0  0  0  0  0  0  0  0
  1  3  4  0
  1 24  4  0
  2  6  4  0
  2 15  4  0
  3  5  4  0
  3  6  4  0
  4 21  4  0
  4 29  4  0
  5 15  4  0
  5 28  1  0
  6 16  4  0
  7 18  4  0
  7 26  4  0
  8 18  1  0
  8 19  4  0
  8 22  4  0
  9 12  4  0
  9 19  4  0
 10 12  4  0
 10 22  4  0
 11 20  4  0
 11 21  4  0
 12 23  1  0
 13 20  4  0
 13 29  4  0
 14 17  4  0
 14 28  4  0
 15 25  2  0
 16 27  4  0
 17 18  4  0
 20 27  1  0
 24 27  4  0
 26 28  4  0
M  END
$$$$

 Created by Python create_sdf_string function

 29 33  0  0  0  0  0  0  0  0999 V2000
    8.8270   -7.0288   18.4251 C   0  0  0  0  0  0  0  0  0  0  0  0
    9.1576   -4.6236   15.8860 O   0  0  0  0  0  0  0  0  0  0  0  0
    9.1509   -5.9108   17.7177 C   0  0  0  0  0  0  0  0  0  0  0  0
    3.6373   -9.5349   16.0582 N   0  0  0  0  0  0  0  0  0  0  0  0
    9.9275   -4.8001   18.0438 N   0  0  0  0  0  0  0  0  0  0  0  0
    8.5908   -5.7425   16.4412 C   0  0  0  0  0  0  0  0  0  0  0  0
   10.5993   -4.8981   21.6068 C   0  0  0  0  0  0  0  0  0  0  0  0
   10.4258   -3.0106   23.0998 C   0  0  0  0  0  0  0  0  0  0  0  0
   10.2148   -3.4364   25.4200 C   0  0  0  0  0  0  0  0  0  0  0  0
    9.7853   -1.1840   24.4927 C   0  0  0  0  0  0  0  0  0  0  0  0
    5.0276   -8.5227   17.5352 C   0  0  0  0  0  0  0  0  0  0  0  0
    9.8187   -2.0895   25.5800 C   0  0  0  0  0  0  0  0  0  0  0  0
    5.6473   -8.7216   15.3158 C   0  0  0  0  0  0  0  0  0  0  0  0
   10.7581   -3.1233   19.4720 N   0  0  0  0  0  0  0  0  0  0  0  0
    9.9571   -4.0573   16.8866 C   0  0  0  0  0  0  0  0  0  0  0  0
    7.6213   -6.5618   16.0087 C   0  0  0  0  0  0  0  0  0  0  0  0
   10.8583   -2.6527   20.7222 C   0  0  0  0  0  0  0  0  0  0  0  0
   10.6412   -3.5089   21.7936 C   0  0  0  0  0  0  0  0  0  0  0  0
   10.4972   -3.8968   24.1589 C   0  0  0  0  0  0  0  0  0  0  0  0
    5.9260   -8.2736   16.5517 C   0  0  0  0  0  0  0  0  0  0  0  0
    3.8816   -9.1166   17.2493 C   0  0  0  0  0  0  0  0  0  0  0  0
   10.1297   -1.6575   23.2324 C   0  0  0  0  0  0  0  0  0  0  0  0
    9.4684   -1.6929   26.7263 F   0  0  0  0  0  0  0  0  0  0  0  0
    7.7963   -7.7906   17.9837 C   0  0  0  0  0  0  0  0  0  0  0  0
   10.5884   -3.0725   16.7902 O   0  0  0  0  0  0  0  0  0  0  0  0
   10.4323   -5.3494   20.3516 C   0  0  0  0  0  0  0  0  0  0  0  0
    7.1156   -7.5454   16.8218 C   0  0  0  0  0  0  0  0  0  0  0  0
   10.3885   -4.4388   19.2773 C   0  0  0  0  0  0  0  0  0  0  0  0
    4.5160   -9.3822   15.0841 C   0  0  0  0  0  0  0  0  0  0  0  0
  1  3  4  0
  1 24  4  0
  2  6  4  0
  2 15  4  0
  3  5  4  0
  3  6  4  0
  4 21  4  0
  4 29  4  0
  5 15  4  0
  5 28  1  0
  6 16  4  0
  7 18  4  0
  7 26  4  0
  8 18  1  0
  8 19  4  0
  8 22  4  0
  9 12  4  0
  9 19  4  0
 10 12  4  0
 10 22  4  0
 11 20  4  0
 11 21  4  0
 12 23  1  0
 13 20  4  0
 13 29  4  0
 14 17  4  0
 14 28  4  0
 15 25  2  0
 16 27  4  0
 17 18  4  0
 20 27  1  0
 24 27  4  0
 26 28  4  0
M  END
$$$$

 Created by Python create_sdf_string function

 29 33  0  0  0  0  0  0  0  0999 V2000
    8.8270   -7.0288   18.4251 C   0  0  0  0  0  0  0  0  0  0  0  0
    9.1576   -4.6236   15.8860 O   0  0  0  0  0  0  0  0  0  0  0  0
    9.1509   -5.9108   17.7177 C   0  0  0  0  0  0  0  0  0  0  0  0
    3.6373   -9.5349   16.0582 N   0  0  0  0  0  0  0  0  0  0  0  0
    9.9275   -4.8001   18.0438 N   0  0  0  0  0  0  0  0  0  0  0  0
    8.5908   -5.7425   16.4412 C   0  0  0  0  0  0  0  0  0  0  0  0
   10.5993   -4.8981   21.6068 C   0  0  0  0  0  0  0  0  0  0  0  0
   10.4258   -3.0106   23.0998 C   0  0  0  0  0  0  0  0  0  0  0  0
   10.2148   -3.4364   25.4200 C   0  0  0  0  0  0  0  0  0  0  0  0
    9.7853   -1.1840   24.4927 C   0  0  0  0  0  0  0  0  0  0  0  0
    5.0276   -8.5227   17.5352 C   0  0  0  0  0  0  0  0  0  0  0  0
    9.8187   -2.0895   25.5800 C   0  0  0  0  0  0  0  0  0  0  0  0
    5.6473   -8.7216   15.3158 C   0  0  0  0  0  0  0  0  0  0  0  0
   10.7581   -3.1233   19.4720 N   0  0  0  0  0  0  0  0  0  0  0  0
    9.9571   -4.0573   16.8866 C   0  0  0  0  0  0  0  0  0  0  0  0
    7.6213   -6.5618   16.0087 C   0  0  0  0  0  0  0  0  0  0  0  0
   10.8583   -2.6527   20.7222 C   0  0  0  0  0  0  0  0  0  0  0  0
   10.6412   -3.5089   21.7936 C   0  0  0  0  0  0  0  0  0  0  0  0
   10.4972   -3.8968   24.1589 C   0  0  0  0  0  0  0  0  0  0  0  0
    5.9260   -8.2736   16.5517 C   0  0  0  0  0  0  0  0  0  0  0  0
    3.8816   -9.1166   17.2493 C   0  0  0  0  0  0  0  0  0  0  0  0
   10.1297   -1.6575   23.2324 C   0  0  0  0  0  0  0  0  0  0  0  0
    9.4684   -1.6929   26.7263 F   0  0  0  0  0  0  0  0  0  0  0  0
    7.7963   -7.7906   17.9837 C   0  0  0  0  0  0  0  0  0  0  0  0
   10.5884   -3.0725   16.7902 O   0  0  0  0  0  0  0  0  0  0  0  0
   10.4323   -5.3494   20.3516 C   0  0  0  0  0  0  0  0  0  0  0  0
    7.1156   -7.5454   16.8218 C   0  0  0  0  0  0  0  0  0  0  0  0
   10.3885   -4.4388   19.2773 C   0  0  0  0  0  0  0  0  0  0  0  0
    4.5160   -9.3822   15.0841 C   0  0  0  0  0  0  0  0  0  0  0  0
  1  3  4  0
  1 24  4  0
  2  6  4  0
  2 15  4  0
  3  5  4  0
  3  6  4  0
  4 21  4  0
  4 29  4  0
  5 15  4  0
  5 28  1  0
  6 16  4  0
  7 18  4  0
  7 26  4  0
  8 18  1  0
  8 19  4  0
  8 22  4  0
  9 12  4  0
  9 19  4  0
 10 12  4  0
 10 22  4  0
 11 20  4  0
 11 21  4  0
 12 23  1  0
 13 20  4  0
 13 29  4  0
 14 17  4  0
 14 28  4  0
 15 25  2  0
 16 27  4  0
 17 18  4  0
 20 27  1  0
 24 27  4  0
 26 28  4  0
M  END
$$$$

 Created by Python create_sdf_string function

 29 33  0  0  0  0  0  0  0  0999 V2000
    8.8270   -7.0288   18.4251 C   0  0  0  0  0  0  0  0  0  0  0  0
    9.1576   -4.6236   15.8860 O   0  0  0  0  0  0  0  0  0  0  0  0
    9.1509   -5.9108   17.7177 C   0  0  0  0  0  0  0  0  0  0  0  0
    3.6373   -9.5349   16.0582 N   0  0  0  0  0  0  0  0  0  0  0  0
    9.9275   -4.8001   18.0438 N   0  0  0  0  0  0  0  0  0  0  0  0
    8.5908   -5.7425   16.4412 C   0  0  0  0  0  0  0  0  0  0  0  0
   10.5993   -4.8981   21.6068 C   0  0  0  0  0  0  0  0  0  0  0  0
   10.4258   -3.0106   23.0998 C   0  0  0  0  0  0  0  0  0  0  0  0
   10.2148   -3.4364   25.4200 C   0  0  0  0  0  0  0  0  0  0  0  0
    9.7853   -1.1840   24.4927 C   0  0  0  0  0  0  0  0  0  0  0  0
    5.0276   -8.5227   17.5352 C   0  0  0  0  0  0  0  0  0  0  0  0
    9.8187   -2.0895   25.5800 C   0  0  0  0  0  0  0  0  0  0  0  0
    5.6473   -8.7216   15.3158 C   0  0  0  0  0  0  0  0  0  0  0  0
   10.7581   -3.1233   19.4720 N   0  0  0  0  0  0  0  0  0  0  0  0
    9.9571   -4.0573   16.8866 C   0  0  0  0  0  0  0  0  0  0  0  0
    7.6213   -6.5618   16.0087 C   0  0  0  0  0  0  0  0  0  0  0  0
   10.8583   -2.6527   20.7222 C   0  0  0  0  0  0  0  0  0  0  0  0
   10.6412   -3.5089   21.7936 C   0  0  0  0  0  0  0  0  0  0  0  0
   10.4972   -3.8968   24.1589 C   0  0  0  0  0  0  0  0  0  0  0  0
    5.9260   -8.2736   16.5517 C   0  0  0  0  0  0  0  0  0  0  0  0
    3.8816   -9.1166   17.2493 C   0  0  0  0  0  0  0  0  0  0  0  0
   10.1297   -1.6575   23.2324 C   0  0  0  0  0  0  0  0  0  0  0  0
    9.4684   -1.6929   26.7263 F   0  0  0  0  0  0  0  0  0  0  0  0
    7.7963   -7.7906   17.9837 C   0  0  0  0  0  0  0  0  0  0  0  0
   10.5884   -3.0725   16.7902 O   0  0  0  0  0  0  0  0  0  0  0  0
   10.4323   -5.3494   20.3516 C   0  0  0  0  0  0  0  0  0  0  0  0
    7.1156   -7.5454   16.8218 C   0  0  0  0  0  0  0  0  0  0  0  0
   10.3885   -4.4388   19.2773 C   0  0  0  0  0  0  0  0  0  0  0  0
    4.5160   -9.3822   15.0841 C   0  0  0  0  0  0  0  0  0  0  0  0
  1  3  4  0
  1 24  4  0
  2  6  4  0
  2 15  4  0
  3  5  4  0
  3  6  4  0
  4 21  4  0
  4 29  4  0
  5 15  4  0
  5 28  1  0
  6 16  4  0
  7 18  4  0
  7 26  4  0
  8 18  1  0
  8 19  4  0
  8 22  4  0
  9 12  4  0
  9 19  4  0
 10 12  4  0
 10 22  4  0
 11 20  4  0
 11 21  4  0
 12 23  1  0
 13 20  4  0
 13 29  4  0
 14 17  4  0
 14 28  4  0
 15 25  2  0
 16 27  4  0
 17 18  4  0
 20 27  1  0
 24 27  4  0
 26 28  4  0
M  END
$$$$

 Created by Python create_sdf_string function

 29 33  0  0  0  0  0  0  0  0999 V2000
    8.8270   -7.0288   18.4251 C   0  0  0  0  0  0  0  0  0  0  0  0
    9.1576   -4.6236   15.8860 O   0  0  0  0  0  0  0  0  0  0  0  0
    9.1509   -5.9108   17.7177 C   0  0  0  0  0  0  0  0  0  0  0  0
    3.6373   -9.5349   16.0582 N   0  0  0  0  0  0  0  0  0  0  0  0
    9.9275   -4.8001   18.0438 N   0  0  0  0  0  0  0  0  0  0  0  0
    8.5908   -5.7425   16.4412 C   0  0  0  0  0  0  0  0  0  0  0  0
   10.5993   -4.8981   21.6068 C   0  0  0  0  0  0  0  0  0  0  0  0
   10.4258   -3.0106   23.0998 C   0  0  0  0  0  0  0  0  0  0  0  0
   10.2148   -3.4364   25.4200 C   0  0  0  0  0  0  0  0  0  0  0  0
    9.7853   -1.1840   24.4927 C   0  0  0  0  0  0  0  0  0  0  0  0
    5.0276   -8.5227   17.5352 C   0  0  0  0  0  0  0  0  0  0  0  0
    9.8187   -2.0895   25.5800 C   0  0  0  0  0  0  0  0  0  0  0  0
    5.6473   -8.7216   15.3158 C   0  0  0  0  0  0  0  0  0  0  0  0
   10.7581   -3.1233   19.4720 N   0  0  0  0  0  0  0  0  0  0  0  0
    9.9571   -4.0573   16.8866 C   0  0  0  0  0  0  0  0  0  0  0  0
    7.6213   -6.5618   16.0087 C   0  0  0  0  0  0  0  0  0  0  0  0
   10.8583   -2.6527   20.7222 C   0  0  0  0  0  0  0  0  0  0  0  0
   10.6412   -3.5089   21.7936 C   0  0  0  0  0  0  0  0  0  0  0  0
   10.4972   -3.8968   24.1589 C   0  0  0  0  0  0  0  0  0  0  0  0
    5.9260   -8.2736   16.5517 C   0  0  0  0  0  0  0  0  0  0  0  0
    3.8816   -9.1166   17.2493 C   0  0  0  0  0  0  0  0  0  0  0  0
   10.1297   -1.6575   23.2324 C   0  0  0  0  0  0  0  0  0  0  0  0
    9.4684   -1.6929   26.7263 F   0  0  0  0  0  0  0  0  0  0  0  0
    7.7963   -7.7906   17.9837 C   0  0  0  0  0  0  0  0  0  0  0  0
   10.5884   -3.0725   16.7902 O   0  0  0  0  0  0  0  0  0  0  0  0
   10.4323   -5.3494   20.3516 C   0  0  0  0  0  0  0  0  0  0  0  0
    7.1156   -7.5454   16.8218 C   0  0  0  0  0  0  0  0  0  0  0  0
   10.3885   -4.4388   19.2773 C   0  0  0  0  0  0  0  0  0  0  0  0
    4.5160   -9.3822   15.0841 C   0  0  0  0  0  0  0  0  0  0  0  0
  1  3  4  0
  1 24  4  0
  2  6  4  0
  2 15  4  0
  3  5  4  0
  3  6  4  0
  4 21  4  0
  4 29  4  0
  5 15  4  0
  5 28  1  0
  6 16  4  0
  7 18  4  0
  7 26  4  0
  8 18  1  0
  8 19  4  0
  8 22  4  0
  9 12  4  0
  9 19  4  0
 10 12  4  0
 10 22  4  0
 11 20  4  0
 11 21  4  0
 12 23  1  0
 13 20  4  0
 13 29  4  0
 14 17  4  0
 14 28  4  0
 15 25  2  0
 16 27  4  0
 17 18  4  0
 20 27  1  0
 24 27  4  0
 26 28  4  0
M  END
$$$$

 Created by Python create_sdf_string function

 29 33  0  0  0  0  0  0  0  0999 V2000
    8.8270   -7.0288   18.4251 C   0  0  0  0  0  0  0  0  0  0  0  0
    9.1576   -4.6236   15.8860 O   0  0  0  0  0  0  0  0  0  0  0  0
    9.1509   -5.9108   17.7177 C   0  0  0  0  0  0  0  0  0  0  0  0
    3.6373   -9.5349   16.0582 N   0  0  0  0  0  0  0  0  0  0  0  0
    9.9275   -4.8001   18.0438 N   0  0  0  0  0  0  0  0  0  0  0  0
    8.5908   -5.7425   16.4412 C   0  0  0  0  0  0  0  0  0  0  0  0
   10.5993   -4.8981   21.6068 C   0  0  0  0  0  0  0  0  0  0  0  0
   10.4258   -3.0106   23.0998 C   0  0  0  0  0  0  0  0  0  0  0  0
   10.2148   -3.4364   25.4200 C   0  0  0  0  0  0  0  0  0  0  0  0
    9.7853   -1.1840   24.4927 C   0  0  0  0  0  0  0  0  0  0  0  0
    5.0276   -8.5227   17.5352 C   0  0  0  0  0  0  0  0  0  0  0  0
    9.8187   -2.0895   25.5800 C   0  0  0  0  0  0  0  0  0  0  0  0
    5.6473   -8.7216   15.3158 C   0  0  0  0  0  0  0  0  0  0  0  0
   10.7581   -3.1233   19.4720 N   0  0  0  0  0  0  0  0  0  0  0  0
    9.9571   -4.0573   16.8866 C   0  0  0  0  0  0  0  0  0  0  0  0
    7.6213   -6.5618   16.0087 C   0  0  0  0  0  0  0  0  0  0  0  0
   10.8583   -2.6527   20.7222 C   0  0  0  0  0  0  0  0  0  0  0  0
   10.6412   -3.5089   21.7936 C   0  0  0  0  0  0  0  0  0  0  0  0
   10.4972   -3.8968   24.1589 C   0  0  0  0  0  0  0  0  0  0  0  0
    5.9260   -8.2736   16.5517 C   0  0  0  0  0  0  0  0  0  0  0  0
    3.8816   -9.1166   17.2493 C   0  0  0  0  0  0  0  0  0  0  0  0
   10.1297   -1.6575   23.2324 C   0  0  0  0  0  0  0  0  0  0  0  0
    9.4684   -1.6929   26.7263 F   0  0  0  0  0  0  0  0  0  0  0  0
    7.7963   -7.7906   17.9837 C   0  0  0  0  0  0  0  0  0  0  0  0
   10.5884   -3.0725   16.7902 O   0  0  0  0  0  0  0  0  0  0  0  0
   10.4323   -5.3494   20.3516 C   0  0  0  0  0  0  0  0  0  0  0  0
    7.1156   -7.5454   16.8218 C   0  0  0  0  0  0  0  0  0  0  0  0
   10.3885   -4.4388   19.2773 C   0  0  0  0  0  0  0  0  0  0  0  0
    4.5160   -9.3822   15.0841 C   0  0  0  0  0  0  0  0  0  0  0  0
  1  3  4  0
  1 24  4  0
  2  6  4  0
  2 15  4  0
  3  5  4  0
  3  6  4  0
  4 21  4  0
  4 29  4  0
  5 15  4  0
  5 28  1  0
  6 16  4  0
  7 18  4  0
  7 26  4  0
  8 18  1  0
  8 19  4  0
  8 22  4  0
  9 12  4  0
  9 19  4  0
 10 12  4  0
 10 22  4  0
 11 20  4  0
 11 21  4  0
 12 23  1  0
 13 20  4  0
 13 29  4  0
 14 17  4  0
 14 28  4  0
 15 25  2  0
 16 27  4  0
 17 18  4  0
 20 27  1  0
 24 27  4  0
 26 28  4  0
M  END
$$$$

 Created by Python create_sdf_string function

 29 33  0  0  0  0  0  0  0  0999 V2000
    8.8270   -7.0288   18.4251 C   0  0  0  0  0  0  0  0  0  0  0  0
    9.1576   -4.6236   15.8860 O   0  0  0  0  0  0  0  0  0  0  0  0
    9.1509   -5.9108   17.7177 C   0  0  0  0  0  0  0  0  0  0  0  0
    3.6373   -9.5349   16.0582 N   0  0  0  0  0  0  0  0  0  0  0  0
    9.9275   -4.8001   18.0438 N   0  0  0  0  0  0  0  0  0  0  0  0
    8.5908   -5.7425   16.4412 C   0  0  0  0  0  0  0  0  0  0  0  0
   10.5993   -4.8981   21.6068 C   0  0  0  0  0  0  0  0  0  0  0  0
   10.4258   -3.0106   23.0998 C   0  0  0  0  0  0  0  0  0  0  0  0
   10.2148   -3.4364   25.4200 C   0  0  0  0  0  0  0  0  0  0  0  0
    9.7853   -1.1840   24.4927 C   0  0  0  0  0  0  0  0  0  0  0  0
    5.0276   -8.5227   17.5352 C   0  0  0  0  0  0  0  0  0  0  0  0
    9.8187   -2.0895   25.5800 C   0  0  0  0  0  0  0  0  0  0  0  0
    5.6473   -8.7216   15.3158 C   0  0  0  0  0  0  0  0  0  0  0  0
   10.7581   -3.1233   19.4720 N   0  0  0  0  0  0  0  0  0  0  0  0
    9.9571   -4.0573   16.8866 C   0  0  0  0  0  0  0  0  0  0  0  0
    7.6213   -6.5618   16.0087 C   0  0  0  0  0  0  0  0  0  0  0  0
   10.8583   -2.6527   20.7222 C   0  0  0  0  0  0  0  0  0  0  0  0
   10.6412   -3.5089   21.7936 C   0  0  0  0  0  0  0  0  0  0  0  0
   10.4972   -3.8968   24.1589 C   0  0  0  0  0  0  0  0  0  0  0  0
    5.9260   -8.2736   16.5517 C   0  0  0  0  0  0  0  0  0  0  0  0
    3.8816   -9.1166   17.2493 C   0  0  0  0  0  0  0  0  0  0  0  0
   10.1297   -1.6575   23.2324 C   0  0  0  0  0  0  0  0  0  0  0  0
    9.4684   -1.6929   26.7263 F   0  0  0  0  0  0  0  0  0  0  0  0
    7.7963   -7.7906   17.9837 C   0  0  0  0  0  0  0  0  0  0  0  0
   10.5884   -3.0725   16.7902 O   0  0  0  0  0  0  0  0  0  0  0  0
   10.4323   -5.3494   20.3516 C   0  0  0  0  0  0  0  0  0  0  0  0
    7.1156   -7.5454   16.8218 C   0  0  0  0  0  0  0  0  0  0  0  0
   10.3885   -4.4388   19.2773 C   0  0  0  0  0  0  0  0  0  0  0  0
    4.5160   -9.3822   15.0841 C   0  0  0  0  0  0  0  0  0  0  0  0
  1  3  4  0
  1 24  4  0
  2  6  4  0
  2 15  4  0
  3  5  4  0
  3  6  4  0
  4 21  4  0
  4 29  4  0
  5 15  4  0
  5 28  1  0
  6 16  4  0
  7 18  4  0
  7 26  4  0
  8 18  1  0
  8 19  4  0
  8 22  4  0
  9 12  4  0
  9 19  4  0
 10 12  4  0
 10 22  4  0
 11 20  4  0
 11 21  4  0
 12 23  1  0
 13 20  4  0
 13 29  4  0
 14 17  4  0
 14 28  4  0
 15 25  2  0
 16 27  4  0
 17 18  4  0
 20 27  1  0
 24 27  4  0
 26 28  4  0
M  END
$$$$

 Created by Python create_sdf_string function

 29 33  0  0  0  0  0  0  0  0999 V2000
    8.8270   -7.0288   18.4251 C   0  0  0  0  0  0  0  0  0  0  0  0
    9.1576   -4.6236   15.8860 O   0  0  0  0  0  0  0  0  0  0  0  0
    9.1509   -5.9108   17.7177 C   0  0  0  0  0  0  0  0  0  0  0  0
    3.6373   -9.5349   16.0582 N   0  0  0  0  0  0  0  0  0  0  0  0
    9.9275   -4.8001   18.0438 N   0  0  0  0  0  0  0  0  0  0  0  0
    8.5908   -5.7425   16.4412 C   0  0  0  0  0  0  0  0  0  0  0  0
   10.5993   -4.8981   21.6068 C   0  0  0  0  0  0  0  0  0  0  0  0
   10.4258   -3.0106   23.0998 C   0  0  0  0  0  0  0  0  0  0  0  0
   10.2148   -3.4364   25.4200 C   0  0  0  0  0  0  0  0  0  0  0  0
    9.7853   -1.1840   24.4927 C   0  0  0  0  0  0  0  0  0  0  0  0
    5.0276   -8.5227   17.5352 C   0  0  0  0  0  0  0  0  0  0  0  0
    9.8187   -2.0895   25.5800 C   0  0  0  0  0  0  0  0  0  0  0  0
    5.6473   -8.7216   15.3158 C   0  0  0  0  0  0  0  0  0  0  0  0
   10.7581   -3.1233   19.4720 N   0  0  0  0  0  0  0  0  0  0  0  0
    9.9571   -4.0573   16.8866 C   0  0  0  0  0  0  0  0  0  0  0  0
    7.6213   -6.5618   16.0087 C   0  0  0  0  0  0  0  0  0  0  0  0
   10.8583   -2.6527   20.7222 C   0  0  0  0  0  0  0  0  0  0  0  0
   10.6412   -3.5089   21.7936 C   0  0  0  0  0  0  0  0  0  0  0  0
   10.4972   -3.8968   24.1589 C   0  0  0  0  0  0  0  0  0  0  0  0
    5.9260   -8.2736   16.5517 C   0  0  0  0  0  0  0  0  0  0  0  0
    3.8816   -9.1166   17.2493 C   0  0  0  0  0  0  0  0  0  0  0  0
   10.1297   -1.6575   23.2324 C   0  0  0  0  0  0  0  0  0  0  0  0
    9.4684   -1.6929   26.7263 F   0  0  0  0  0  0  0  0  0  0  0  0
    7.7963   -7.7906   17.9837 C   0  0  0  0  0  0  0  0  0  0  0  0
   10.5884   -3.0725   16.7902 O   0  0  0  0  0  0  0  0  0  0  0  0
   10.4323   -5.3494   20.3516 C   0  0  0  0  0  0  0  0  0  0  0  0
    7.1156   -7.5454   16.8218 C   0  0  0  0  0  0  0  0  0  0  0  0
   10.3885   -4.4388   19.2773 C   0  0  0  0  0  0  0  0  0  0  0  0
    4.5160   -9.3822   15.0841 C   0  0  0  0  0  0  0  0  0  0  0  0
  1  3  4  0
  1 24  4  0
  2  6  4  0
  2 15  4  0
  3  5  4  0
  3  6  4  0
  4 21  4  0
  4 29  4  0
  5 15  4  0
  5 28  1  0
  6 16  4  0
  7 18  4  0
  7 26  4  0
  8 18  1  0
  8 19  4  0
  8 22  4  0
  9 12  4  0
  9 19  4  0
 10 12  4  0
 10 22  4  0
 11 20  4  0
 11 21  4  0
 12 23  1  0
 13 20  4  0
 13 29  4  0
 14 17  4  0
 14 28  4  0
 15 25  2  0
 16 27  4  0
 17 18  4  0
 20 27  1  0
 24 27  4  0
 26 28  4  0
M  END
$$$$

 Created by Python create_sdf_string function

 29 33  0  0  0  0  0  0  0  0999 V2000
    8.8270   -7.0288   18.4251 C   0  0  0  0  0  0  0  0  0  0  0  0
    9.1576   -4.6236   15.8860 O   0  0  0  0  0  0  0  0  0  0  0  0
    9.1509   -5.9108   17.7177 C   0  0  0  0  0  0  0  0  0  0  0  0
    3.6373   -9.5349   16.0582 N   0  0  0  0  0  0  0  0  0  0  0  0
    9.9275   -4.8001   18.0438 N   0  0  0  0  0  0  0  0  0  0  0  0
    8.5908   -5.7425   16.4412 C   0  0  0  0  0  0  0  0  0  0  0  0
   10.5993   -4.8981   21.6068 C   0  0  0  0  0  0  0  0  0  0  0  0
   10.4258   -3.0106   23.0998 C   0  0  0  0  0  0  0  0  0  0  0  0
   10.2148   -3.4364   25.4200 C   0  0  0  0  0  0  0  0  0  0  0  0
    9.7853   -1.1840   24.4927 C   0  0  0  0  0  0  0  0  0  0  0  0
    5.0276   -8.5227   17.5352 C   0  0  0  0  0  0  0  0  0  0  0  0
    9.8187   -2.0895   25.5800 C   0  0  0  0  0  0  0  0  0  0  0  0
    5.6473   -8.7216   15.3158 C   0  0  0  0  0  0  0  0  0  0  0  0
   10.7581   -3.1233   19.4720 N   0  0  0  0  0  0  0  0  0  0  0  0
    9.9571   -4.0573   16.8866 C   0  0  0  0  0  0  0  0  0  0  0  0
    7.6213   -6.5618   16.0087 C   0  0  0  0  0  0  0  0  0  0  0  0
   10.8583   -2.6527   20.7222 C   0  0  0  0  0  0  0  0  0  0  0  0
   10.6412   -3.5089   21.7936 C   0  0  0  0  0  0  0  0  0  0  0  0
   10.4972   -3.8968   24.1589 C   0  0  0  0  0  0  0  0  0  0  0  0
    5.9260   -8.2736   16.5517 C   0  0  0  0  0  0  0  0  0  0  0  0
    3.8816   -9.1166   17.2493 C   0  0  0  0  0  0  0  0  0  0  0  0
   10.1297   -1.6575   23.2324 C   0  0  0  0  0  0  0  0  0  0  0  0
    9.4684   -1.6929   26.7263 F   0  0  0  0  0  0  0  0  0  0  0  0
    7.7963   -7.7906   17.9837 C   0  0  0  0  0  0  0  0  0  0  0  0
   10.5884   -3.0725   16.7902 O   0  0  0  0  0  0  0  0  0  0  0  0
   10.4323   -5.3494   20.3516 C   0  0  0  0  0  0  0  0  0  0  0  0
    7.1156   -7.5454   16.8218 C   0  0  0  0  0  0  0  0  0  0  0  0
   10.3885   -4.4388   19.2773 C   0  0  0  0  0  0  0  0  0  0  0  0
    4.5160   -9.3822   15.0841 C   0  0  0  0  0  0  0  0  0  0  0  0
  1  3  4  0
  1 24  4  0
  2  6  4  0
  2 15  4  0
  3  5  4  0
  3  6  4  0
  4 21  4  0
  4 29  4  0
  5 15  4  0
  5 28  1  0
  6 16  4  0
  7 18  4  0
  7 26  4  0
  8 18  1  0
  8 19  4  0
  8 22  4  0
  9 12  4  0
  9 19  4  0
 10 12  4  0
 10 22  4  0
 11 20  4  0
 11 21  4  0
 12 23  1  0
 13 20  4  0
 13 29  4  0
 14 17  4  0
 14 28  4  0
 15 25  2  0
 16 27  4  0
 17 18  4  0
 20 27  1  0
 24 27  4  0
 26 28  4  0
M  END
$$$$

 Created by Python create_sdf_string function

 29 33  0  0  0  0  0  0  0  0999 V2000
    8.8270   -7.0288   18.4251 C   0  0  0  0  0  0  0  0  0  0  0  0
    9.1576   -4.6236   15.8860 O   0  0  0  0  0  0  0  0  0  0  0  0
    9.1509   -5.9108   17.7177 C   0  0  0  0  0  0  0  0  0  0  0  0
    3.6373   -9.5349   16.0582 N   0  0  0  0  0  0  0  0  0  0  0  0
    9.9275   -4.8001   18.0438 N   0  0  0  0  0  0  0  0  0  0  0  0
    8.5908   -5.7425   16.4412 C   0  0  0  0  0  0  0  0  0  0  0  0
   10.5993   -4.8981   21.6068 C   0  0  0  0  0  0  0  0  0  0  0  0
   10.4258   -3.0106   23.0998 C   0  0  0  0  0  0  0  0  0  0  0  0
   10.2148   -3.4364   25.4200 C   0  0  0  0  0  0  0  0  0  0  0  0
    9.7853   -1.1840   24.4927 C   0  0  0  0  0  0  0  0  0  0  0  0
    5.0276   -8.5227   17.5352 C   0  0  0  0  0  0  0  0  0  0  0  0
    9.8187   -2.0895   25.5800 C   0  0  0  0  0  0  0  0  0  0  0  0
    5.6473   -8.7216   15.3158 C   0  0  0  0  0  0  0  0  0  0  0  0
   10.7581   -3.1233   19.4720 N   0  0  0  0  0  0  0  0  0  0  0  0
    9.9571   -4.0573   16.8866 C   0  0  0  0  0  0  0  0  0  0  0  0
    7.6213   -6.5618   16.0087 C   0  0  0  0  0  0  0  0  0  0  0  0
   10.8583   -2.6527   20.7222 C   0  0  0  0  0  0  0  0  0  0  0  0
   10.6412   -3.5089   21.7936 C   0  0  0  0  0  0  0  0  0  0  0  0
   10.4972   -3.8968   24.1589 C   0  0  0  0  0  0  0  0  0  0  0  0
    5.9260   -8.2736   16.5517 C   0  0  0  0  0  0  0  0  0  0  0  0
    3.8816   -9.1166   17.2493 C   0  0  0  0  0  0  0  0  0  0  0  0
   10.1297   -1.6575   23.2324 C   0  0  0  0  0  0  0  0  0  0  0  0
    9.4684   -1.6929   26.7263 F   0  0  0  0  0  0  0  0  0  0  0  0
    7.7963   -7.7906   17.9837 C   0  0  0  0  0  0  0  0  0  0  0  0
   10.5884   -3.0725   16.7902 O   0  0  0  0  0  0  0  0  0  0  0  0
   10.4323   -5.3494   20.3516 C   0  0  0  0  0  0  0  0  0  0  0  0
    7.1156   -7.5454   16.8218 C   0  0  0  0  0  0  0  0  0  0  0  0
   10.3885   -4.4388   19.2773 C   0  0  0  0  0  0  0  0  0  0  0  0
    4.5160   -9.3822   15.0841 C   0  0  0  0  0  0  0  0  0  0  0  0
  1  3  4  0
  1 24  4  0
  2  6  4  0
  2 15  4  0
  3  5  4  0
  3  6  4  0
  4 21  4  0
  4 29  4  0
  5 15  4  0
  5 28  1  0
  6 16  4  0
  7 18  4  0
  7 26  4  0
  8 18  1  0
  8 19  4  0
  8 22  4  0
  9 12  4  0
  9 19  4  0
 10 12  4  0
 10 22  4  0
 11 20  4  0
 11 21  4  0
 12 23  1  0
 13 20  4  0
 13 29  4  0
 14 17  4  0
 14 28  4  0
 15 25  2  0
 16 27  4  0
 17 18  4  0
 20 27  1  0
 24 27  4  0
 26 28  4  0
M  END
$$$$

 Created by Python create_sdf_string function

 29 33  0  0  0  0  0  0  0  0999 V2000
    8.8270   -7.0288   18.4251 C   0  0  0  0  0  0  0  0  0  0  0  0
    9.1576   -4.6236   15.8860 O   0  0  0  0  0  0  0  0  0  0  0  0
    9.1509   -5.9108   17.7177 C   0  0  0  0  0  0  0  0  0  0  0  0
    3.6373   -9.5349   16.0582 N   0  0  0  0  0  0  0  0  0  0  0  0
    9.9275   -4.8001   18.0438 N   0  0  0  0  0  0  0  0  0  0  0  0
    8.5908   -5.7425   16.4412 C   0  0  0  0  0  0  0  0  0  0  0  0
   10.5993   -4.8981   21.6068 C   0  0  0  0  0  0  0  0  0  0  0  0
   10.4258   -3.0106   23.0998 C   0  0  0  0  0  0  0  0  0  0  0  0
   10.2148   -3.4364   25.4200 C   0  0  0  0  0  0  0  0  0  0  0  0
    9.7853   -1.1840   24.4927 C   0  0  0  0  0  0  0  0  0  0  0  0
    5.0276   -8.5227   17.5352 C   0  0  0  0  0  0  0  0  0  0  0  0
    9.8187   -2.0895   25.5800 C   0  0  0  0  0  0  0  0  0  0  0  0
    5.6473   -8.7216   15.3158 C   0  0  0  0  0  0  0  0  0  0  0  0
   10.7581   -3.1233   19.4720 N   0  0  0  0  0  0  0  0  0  0  0  0
    9.9571   -4.0573   16.8866 C   0  0  0  0  0  0  0  0  0  0  0  0
    7.6213   -6.5618   16.0087 C   0  0  0  0  0  0  0  0  0  0  0  0
   10.8583   -2.6527   20.7222 C   0  0  0  0  0  0  0  0  0  0  0  0
   10.6412   -3.5089   21.7936 C   0  0  0  0  0  0  0  0  0  0  0  0
   10.4972   -3.8968   24.1589 C   0  0  0  0  0  0  0  0  0  0  0  0
    5.9260   -8.2736   16.5517 C   0  0  0  0  0  0  0  0  0  0  0  0
    3.8816   -9.1166   17.2493 C   0  0  0  0  0  0  0  0  0  0  0  0
   10.1297   -1.6575   23.2324 C   0  0  0  0  0  0  0  0  0  0  0  0
    9.4684   -1.6929   26.7263 F   0  0  0  0  0  0  0  0  0  0  0  0
    7.7963   -7.7906   17.9837 C   0  0  0  0  0  0  0  0  0  0  0  0
   10.5884   -3.0725   16.7902 O   0  0  0  0  0  0  0  0  0  0  0  0
   10.4323   -5.3494   20.3516 C   0  0  0  0  0  0  0  0  0  0  0  0
    7.1156   -7.5454   16.8218 C   0  0  0  0  0  0  0  0  0  0  0  0
   10.3885   -4.4388   19.2773 C   0  0  0  0  0  0  0  0  0  0  0  0
    4.5160   -9.3822   15.0841 C   0  0  0  0  0  0  0  0  0  0  0  0
  1  3  4  0
  1 24  4  0
  2  6  4  0
  2 15  4  0
  3  5  4  0
  3  6  4  0
  4 21  4  0
  4 29  4  0
  5 15  4  0
  5 28  1  0
  6 16  4  0
  7 18  4  0
  7 26  4  0
  8 18  1  0
  8 19  4  0
  8 22  4  0
  9 12  4  0
  9 19  4  0
 10 12  4  0
 10 22  4  0
 11 20  4  0
 11 21  4  0
 12 23  1  0
 13 20  4  0
 13 29  4  0
 14 17  4  0
 14 28  4  0
 15 25  2  0
 16 27  4  0
 17 18  4  0
 20 27  1  0
 24 27  4  0
 26 28  4  0
M  END
$$$$

 Created by Python create_sdf_string function

 29 33  0  0  0  0  0  0  0  0999 V2000
    8.8270   -7.0288   18.4251 C   0  0  0  0  0  0  0  0  0  0  0  0
    9.1576   -4.6236   15.8860 O   0  0  0  0  0  0  0  0  0  0  0  0
    9.1509   -5.9108   17.7177 C   0  0  0  0  0  0  0  0  0  0  0  0
    3.6373   -9.5349   16.0582 N   0  0  0  0  0  0  0  0  0  0  0  0
    9.9275   -4.8001   18.0438 N   0  0  0  0  0  0  0  0  0  0  0  0
    8.5908   -5.7425   16.4412 C   0  0  0  0  0  0  0  0  0  0  0  0
   10.5993   -4.8981   21.6068 C   0  0  0  0  0  0  0  0  0  0  0  0
   10.4258   -3.0106   23.0998 C   0  0  0  0  0  0  0  0  0  0  0  0
   10.2148   -3.4364   25.4200 C   0  0  0  0  0  0  0  0  0  0  0  0
    9.7853   -1.1840   24.4927 C   0  0  0  0  0  0  0  0  0  0  0  0
    5.0276   -8.5227   17.5352 C   0  0  0  0  0  0  0  0  0  0  0  0
    9.8187   -2.0895   25.5800 C   0  0  0  0  0  0  0  0  0  0  0  0
    5.6473   -8.7216   15.3158 C   0  0  0  0  0  0  0  0  0  0  0  0
   10.7581   -3.1233   19.4720 N   0  0  0  0  0  0  0  0  0  0  0  0
    9.9571   -4.0573   16.8866 C   0  0  0  0  0  0  0  0  0  0  0  0
    7.6213   -6.5618   16.0087 C   0  0  0  0  0  0  0  0  0  0  0  0
   10.8583   -2.6527   20.7222 C   0  0  0  0  0  0  0  0  0  0  0  0
   10.6412   -3.5089   21.7936 C   0  0  0  0  0  0  0  0  0  0  0  0
   10.4972   -3.8968   24.1589 C   0  0  0  0  0  0  0  0  0  0  0  0
    5.9260   -8.2736   16.5517 C   0  0  0  0  0  0  0  0  0  0  0  0
    3.8816   -9.1166   17.2493 C   0  0  0  0  0  0  0  0  0  0  0  0
   10.1297   -1.6575   23.2324 C   0  0  0  0  0  0  0  0  0  0  0  0
    9.4684   -1.6929   26.7263 F   0  0  0  0  0  0  0  0  0  0  0  0
    7.7963   -7.7906   17.9837 C   0  0  0  0  0  0  0  0  0  0  0  0
   10.5884   -3.0725   16.7902 O   0  0  0  0  0  0  0  0  0  0  0  0
   10.4323   -5.3494   20.3516 C   0  0  0  0  0  0  0  0  0  0  0  0
    7.1156   -7.5454   16.8218 C   0  0  0  0  0  0  0  0  0  0  0  0
   10.3885   -4.4388   19.2773 C   0  0  0  0  0  0  0  0  0  0  0  0
    4.5160   -9.3822   15.0841 C   0  0  0  0  0  0  0  0  0  0  0  0
  1  3  4  0
  1 24  4  0
  2  6  4  0
  2 15  4  0
  3  5  4  0
  3  6  4  0
  4 21  4  0
  4 29  4  0
  5 15  4  0
  5 28  1  0
  6 16  4  0
  7 18  4  0
  7 26  4  0
  8 18  1  0
  8 19  4  0
  8 22  4  0
  9 12  4  0
  9 19  4  0
 10 12  4  0
 10 22  4  0
 11 20  4  0
 11 21  4  0
 12 23  1  0
 13 20  4  0
 13 29  4  0
 14 17  4  0
 14 28  4  0
 15 25  2  0
 16 27  4  0
 17 18  4  0
 20 27  1  0
 24 27  4  0
 26 28  4  0
M  END
$$$$

 Created by Python create_sdf_string function

 29 33  0  0  0  0  0  0  0  0999 V2000
    8.8270   -7.0288   18.4251 C   0  0  0  0  0  0  0  0  0  0  0  0
    9.1576   -4.6236   15.8860 O   0  0  0  0  0  0  0  0  0  0  0  0
    9.1509   -5.9108   17.7177 C   0  0  0  0  0  0  0  0  0  0  0  0
    3.6373   -9.5349   16.0582 N   0  0  0  0  0  0  0  0  0  0  0  0
    9.9275   -4.8001   18.0438 N   0  0  0  0  0  0  0  0  0  0  0  0
    8.5908   -5.7425   16.4412 C   0  0  0  0  0  0  0  0  0  0  0  0
   10.5993   -4.8981   21.6068 C   0  0  0  0  0  0  0  0  0  0  0  0
   10.4258   -3.0106   23.0998 C   0  0  0  0  0  0  0  0  0  0  0  0
   10.2148   -3.4364   25.4200 C   0  0  0  0  0  0  0  0  0  0  0  0
    9.7853   -1.1840   24.4927 C   0  0  0  0  0  0  0  0  0  0  0  0
    5.0276   -8.5227   17.5352 C   0  0  0  0  0  0  0  0  0  0  0  0
    9.8187   -2.0895   25.5800 C   0  0  0  0  0  0  0  0  0  0  0  0
    5.6473   -8.7216   15.3158 C   0  0  0  0  0  0  0  0  0  0  0  0
   10.7581   -3.1233   19.4720 N   0  0  0  0  0  0  0  0  0  0  0  0
    9.9571   -4.0573   16.8866 C   0  0  0  0  0  0  0  0  0  0  0  0
    7.6213   -6.5618   16.0087 C   0  0  0  0  0  0  0  0  0  0  0  0
   10.8583   -2.6527   20.7222 C   0  0  0  0  0  0  0  0  0  0  0  0
   10.6412   -3.5089   21.7936 C   0  0  0  0  0  0  0  0  0  0  0  0
   10.4972   -3.8968   24.1589 C   0  0  0  0  0  0  0  0  0  0  0  0
    5.9260   -8.2736   16.5517 C   0  0  0  0  0  0  0  0  0  0  0  0
    3.8816   -9.1166   17.2493 C   0  0  0  0  0  0  0  0  0  0  0  0
   10.1297   -1.6575   23.2324 C   0  0  0  0  0  0  0  0  0  0  0  0
    9.4684   -1.6929   26.7263 F   0  0  0  0  0  0  0  0  0  0  0  0
    7.7963   -7.7906   17.9837 C   0  0  0  0  0  0  0  0  0  0  0  0
   10.5884   -3.0725   16.7902 O   0  0  0  0  0  0  0  0  0  0  0  0
   10.4323   -5.3494   20.3516 C   0  0  0  0  0  0  0  0  0  0  0  0
    7.1156   -7.5454   16.8218 C   0  0  0  0  0  0  0  0  0  0  0  0
   10.3885   -4.4388   19.2773 C   0  0  0  0  0  0  0  0  0  0  0  0
    4.5160   -9.3822   15.0841 C   0  0  0  0  0  0  0  0  0  0  0  0
  1  3  4  0
  1 24  4  0
  2  6  4  0
  2 15  4  0
  3  5  4  0
  3  6  4  0
  4 21  4  0
  4 29  4  0
  5 15  4  0
  5 28  1  0
  6 16  4  0
  7 18  4  0
  7 26  4  0
  8 18  1  0
  8 19  4  0
  8 22  4  0
  9 12  4  0
  9 19  4  0
 10 12  4  0
 10 22  4  0
 11 20  4  0
 11 21  4  0
 12 23  1  0
 13 20  4  0
 13 29  4  0
 14 17  4  0
 14 28  4  0
 15 25  2  0
 16 27  4  0
 17 18  4  0
 20 27  1  0
 24 27  4  0
 26 28  4  0
M  END
$$$$

 Created by Python create_sdf_string function

 29 33  0  0  0  0  0  0  0  0999 V2000
    8.8270   -7.0288   18.4251 C   0  0  0  0  0  0  0  0  0  0  0  0
    9.1576   -4.6236   15.8860 O   0  0  0  0  0  0  0  0  0  0  0  0
    9.1509   -5.9108   17.7177 C   0  0  0  0  0  0  0  0  0  0  0  0
    3.6373   -9.5349   16.0582 N   0  0  0  0  0  0  0  0  0  0  0  0
    9.9275   -4.8001   18.0438 N   0  0  0  0  0  0  0  0  0  0  0  0
    8.5908   -5.7425   16.4412 C   0  0  0  0  0  0  0  0  0  0  0  0
   10.5993   -4.8981   21.6068 C   0  0  0  0  0  0  0  0  0  0  0  0
   10.4258   -3.0106   23.0998 C   0  0  0  0  0  0  0  0  0  0  0  0
   10.2148   -3.4364   25.4200 C   0  0  0  0  0  0  0  0  0  0  0  0
    9.7853   -1.1840   24.4927 C   0  0  0  0  0  0  0  0  0  0  0  0
    5.0276   -8.5227   17.5352 C   0  0  0  0  0  0  0  0  0  0  0  0
    9.8187   -2.0895   25.5800 C   0  0  0  0  0  0  0  0  0  0  0  0
    5.6473   -8.7216   15.3158 C   0  0  0  0  0  0  0  0  0  0  0  0
   10.7581   -3.1233   19.4720 N   0  0  0  0  0  0  0  0  0  0  0  0
    9.9571   -4.0573   16.8866 C   0  0  0  0  0  0  0  0  0  0  0  0
    7.6213   -6.5618   16.0087 C   0  0  0  0  0  0  0  0  0  0  0  0
   10.8583   -2.6527   20.7222 C   0  0  0  0  0  0  0  0  0  0  0  0
   10.6412   -3.5089   21.7936 C   0  0  0  0  0  0  0  0  0  0  0  0
   10.4972   -3.8968   24.1589 C   0  0  0  0  0  0  0  0  0  0  0  0
    5.9260   -8.2736   16.5517 C   0  0  0  0  0  0  0  0  0  0  0  0
    3.8816   -9.1166   17.2493 C   0  0  0  0  0  0  0  0  0  0  0  0
   10.1297   -1.6575   23.2324 C   0  0  0  0  0  0  0  0  0  0  0  0
    9.4684   -1.6929   26.7263 F   0  0  0  0  0  0  0  0  0  0  0  0
    7.7963   -7.7906   17.9837 C   0  0  0  0  0  0  0  0  0  0  0  0
   10.5884   -3.0725   16.7902 O   0  0  0  0  0  0  0  0  0  0  0  0
   10.4323   -5.3494   20.3516 C   0  0  0  0  0  0  0  0  0  0  0  0
    7.1156   -7.5454   16.8218 C   0  0  0  0  0  0  0  0  0  0  0  0
   10.3885   -4.4388   19.2773 C   0  0  0  0  0  0  0  0  0  0  0  0
    4.5160   -9.3822   15.0841 C   0  0  0  0  0  0  0  0  0  0  0  0
  1  3  4  0
  1 24  4  0
  2  6  4  0
  2 15  4  0
  3  5  4  0
  3  6  4  0
  4 21  4  0
  4 29  4  0
  5 15  4  0
  5 28  1  0
  6 16  4  0
  7 18  4  0
  7 26  4  0
  8 18  1  0
  8 19  4  0
  8 22  4  0
  9 12  4  0
  9 19  4  0
 10 12  4  0
 10 22  4  0
 11 20  4  0
 11 21  4  0
 12 23  1  0
 13 20  4  0
 13 29  4  0
 14 17  4  0
 14 28  4  0
 15 25  2  0
 16 27  4  0
 17 18  4  0
 20 27  1  0
 24 27  4  0
 26 28  4  0
M  END
$$$$

 Created by Python create_sdf_string function

 29 33  0  0  0  0  0  0  0  0999 V2000
    8.8270   -7.0288   18.4251 C   0  0  0  0  0  0  0  0  0  0  0  0
    9.1576   -4.6236   15.8860 O   0  0  0  0  0  0  0  0  0  0  0  0
    9.1509   -5.9108   17.7177 C   0  0  0  0  0  0  0  0  0  0  0  0
    3.6373   -9.5349   16.0582 N   0  0  0  0  0  0  0  0  0  0  0  0
    9.9275   -4.8001   18.0438 N   0  0  0  0  0  0  0  0  0  0  0  0
    8.5908   -5.7425   16.4412 C   0  0  0  0  0  0  0  0  0  0  0  0
   10.5993   -4.8981   21.6068 C   0  0  0  0  0  0  0  0  0  0  0  0
   10.4258   -3.0106   23.0998 C   0  0  0  0  0  0  0  0  0  0  0  0
   10.2148   -3.4364   25.4200 C   0  0  0  0  0  0  0  0  0  0  0  0
    9.7853   -1.1840   24.4927 C   0  0  0  0  0  0  0  0  0  0  0  0
    5.0276   -8.5227   17.5352 C   0  0  0  0  0  0  0  0  0  0  0  0
    9.8187   -2.0895   25.5800 C   0  0  0  0  0  0  0  0  0  0  0  0
    5.6473   -8.7216   15.3158 C   0  0  0  0  0  0  0  0  0  0  0  0
   10.7581   -3.1233   19.4720 N   0  0  0  0  0  0  0  0  0  0  0  0
    9.9571   -4.0573   16.8866 C   0  0  0  0  0  0  0  0  0  0  0  0
    7.6213   -6.5618   16.0087 C   0  0  0  0  0  0  0  0  0  0  0  0
   10.8583   -2.6527   20.7222 C   0  0  0  0  0  0  0  0  0  0  0  0
   10.6412   -3.5089   21.7936 C   0  0  0  0  0  0  0  0  0  0  0  0
   10.4972   -3.8968   24.1589 C   0  0  0  0  0  0  0  0  0  0  0  0
    5.9260   -8.2736   16.5517 C   0  0  0  0  0  0  0  0  0  0  0  0
    3.8816   -9.1166   17.2493 C   0  0  0  0  0  0  0  0  0  0  0  0
   10.1297   -1.6575   23.2324 C   0  0  0  0  0  0  0  0  0  0  0  0
    9.4684   -1.6929   26.7263 F   0  0  0  0  0  0  0  0  0  0  0  0
    7.7963   -7.7906   17.9837 C   0  0  0  0  0  0  0  0  0  0  0  0
   10.5884   -3.0725   16.7902 O   0  0  0  0  0  0  0  0  0  0  0  0
   10.4323   -5.3494   20.3516 C   0  0  0  0  0  0  0  0  0  0  0  0
    7.1156   -7.5454   16.8218 C   0  0  0  0  0  0  0  0  0  0  0  0
   10.3885   -4.4388   19.2773 C   0  0  0  0  0  0  0  0  0  0  0  0
    4.5160   -9.3822   15.0841 C   0  0  0  0  0  0  0  0  0  0  0  0
  1  3  4  0
  1 24  4  0
  2  6  4  0
  2 15  4  0
  3  5  4  0
  3  6  4  0
  4 21  4  0
  4 29  4  0
  5 15  4  0
  5 28  1  0
  6 16  4  0
  7 18  4  0
  7 26  4  0
  8 18  1  0
  8 19  4  0
  8 22  4  0
  9 12  4  0
  9 19  4  0
 10 12  4  0
 10 22  4  0
 11 20  4  0
 11 21  4  0
 12 23  1  0
 13 20  4  0
 13 29  4  0
 14 17  4  0
 14 28  4  0
 15 25  2  0
 16 27  4  0
 17 18  4  0
 20 27  1  0
 24 27  4  0
 26 28  4  0
M  END
$$$$

 Created by Python create_sdf_string function

 29 33  0  0  0  0  0  0  0  0999 V2000
    8.8270   -7.0288   18.4251 C   0  0  0  0  0  0  0  0  0  0  0  0
    9.1576   -4.6236   15.8860 O   0  0  0  0  0  0  0  0  0  0  0  0
    9.1509   -5.9108   17.7177 C   0  0  0  0  0  0  0  0  0  0  0  0
    3.6373   -9.5349   16.0582 N   0  0  0  0  0  0  0  0  0  0  0  0
    9.9275   -4.8001   18.0438 N   0  0  0  0  0  0  0  0  0  0  0  0
    8.5908   -5.7425   16.4412 C   0  0  0  0  0  0  0  0  0  0  0  0
   10.5993   -4.8981   21.6068 C   0  0  0  0  0  0  0  0  0  0  0  0
   10.4258   -3.0106   23.0998 C   0  0  0  0  0  0  0  0  0  0  0  0
   10.2148   -3.4364   25.4200 C   0  0  0  0  0  0  0  0  0  0  0  0
    9.7853   -1.1840   24.4927 C   0  0  0  0  0  0  0  0  0  0  0  0
    5.0276   -8.5227   17.5352 C   0  0  0  0  0  0  0  0  0  0  0  0
    9.8187   -2.0895   25.5800 C   0  0  0  0  0  0  0  0  0  0  0  0
    5.6473   -8.7216   15.3158 C   0  0  0  0  0  0  0  0  0  0  0  0
   10.7581   -3.1233   19.4720 N   0  0  0  0  0  0  0  0  0  0  0  0
    9.9571   -4.0573   16.8866 C   0  0  0  0  0  0  0  0  0  0  0  0
    7.6213   -6.5618   16.0087 C   0  0  0  0  0  0  0  0  0  0  0  0
   10.8583   -2.6527   20.7222 C   0  0  0  0  0  0  0  0  0  0  0  0
   10.6412   -3.5089   21.7936 C   0  0  0  0  0  0  0  0  0  0  0  0
   10.4972   -3.8968   24.1589 C   0  0  0  0  0  0  0  0  0  0  0  0
    5.9260   -8.2736   16.5517 C   0  0  0  0  0  0  0  0  0  0  0  0
    3.8816   -9.1166   17.2493 C   0  0  0  0  0  0  0  0  0  0  0  0
   10.1297   -1.6575   23.2324 C   0  0  0  0  0  0  0  0  0  0  0  0
    9.4684   -1.6929   26.7263 F   0  0  0  0  0  0  0  0  0  0  0  0
    7.7963   -7.7906   17.9837 C   0  0  0  0  0  0  0  0  0  0  0  0
   10.5884   -3.0725   16.7902 O   0  0  0  0  0  0  0  0  0  0  0  0
   10.4323   -5.3494   20.3516 C   0  0  0  0  0  0  0  0  0  0  0  0
    7.1156   -7.5454   16.8218 C   0  0  0  0  0  0  0  0  0  0  0  0
   10.3885   -4.4388   19.2773 C   0  0  0  0  0  0  0  0  0  0  0  0
    4.5160   -9.3822   15.0841 C   0  0  0  0  0  0  0  0  0  0  0  0
  1  3  4  0
  1 24  4  0
  2  6  4  0
  2 15  4  0
  3  5  4  0
  3  6  4  0
  4 21  4  0
  4 29  4  0
  5 15  4  0
  5 28  1  0
  6 16  4  0
  7 18  4  0
  7 26  4  0
  8 18  1  0
  8 19  4  0
  8 22  4  0
  9 12  4  0
  9 19  4  0
 10 12  4  0
 10 22  4  0
 11 20  4  0
 11 21  4  0
 12 23  1  0
 13 20  4  0
 13 29  4  0
 14 17  4  0
 14 28  4  0
 15 25  2  0
 16 27  4  0
 17 18  4  0
 20 27  1  0
 24 27  4  0
 26 28  4  0
M  END
$$$$

 Created by Python create_sdf_string function

 29 33  0  0  0  0  0  0  0  0999 V2000
    8.8270   -7.0288   18.4251 C   0  0  0  0  0  0  0  0  0  0  0  0
    9.1576   -4.6236   15.8860 O   0  0  0  0  0  0  0  0  0  0  0  0
    9.1509   -5.9108   17.7177 C   0  0  0  0  0  0  0  0  0  0  0  0
    3.6373   -9.5349   16.0582 N   0  0  0  0  0  0  0  0  0  0  0  0
    9.9275   -4.8001   18.0438 N   0  0  0  0  0  0  0  0  0  0  0  0
    8.5908   -5.7425   16.4412 C   0  0  0  0  0  0  0  0  0  0  0  0
   10.5993   -4.8981   21.6068 C   0  0  0  0  0  0  0  0  0  0  0  0
   10.4258   -3.0106   23.0998 C   0  0  0  0  0  0  0  0  0  0  0  0
   10.2148   -3.4364   25.4200 C   0  0  0  0  0  0  0  0  0  0  0  0
    9.7853   -1.1840   24.4927 C   0  0  0  0  0  0  0  0  0  0  0  0
    5.0276   -8.5227   17.5352 C   0  0  0  0  0  0  0  0  0  0  0  0
    9.8187   -2.0895   25.5800 C   0  0  0  0  0  0  0  0  0  0  0  0
    5.6473   -8.7216   15.3158 C   0  0  0  0  0  0  0  0  0  0  0  0
   10.7581   -3.1233   19.4720 N   0  0  0  0  0  0  0  0  0  0  0  0
    9.9571   -4.0573   16.8866 C   0  0  0  0  0  0  0  0  0  0  0  0
    7.6213   -6.5618   16.0087 C   0  0  0  0  0  0  0  0  0  0  0  0
   10.8583   -2.6527   20.7222 C   0  0  0  0  0  0  0  0  0  0  0  0
   10.6412   -3.5089   21.7936 C   0  0  0  0  0  0  0  0  0  0  0  0
   10.4972   -3.8968   24.1589 C   0  0  0  0  0  0  0  0  0  0  0  0
    5.9260   -8.2736   16.5517 C   0  0  0  0  0  0  0  0  0  0  0  0
    3.8816   -9.1166   17.2493 C   0  0  0  0  0  0  0  0  0  0  0  0
   10.1297   -1.6575   23.2324 C   0  0  0  0  0  0  0  0  0  0  0  0
    9.4684   -1.6929   26.7263 F   0  0  0  0  0  0  0  0  0  0  0  0
    7.7963   -7.7906   17.9837 C   0  0  0  0  0  0  0  0  0  0  0  0
   10.5884   -3.0725   16.7902 O   0  0  0  0  0  0  0  0  0  0  0  0
   10.4323   -5.3494   20.3516 C   0  0  0  0  0  0  0  0  0  0  0  0
    7.1156   -7.5454   16.8218 C   0  0  0  0  0  0  0  0  0  0  0  0
   10.3885   -4.4388   19.2773 C   0  0  0  0  0  0  0  0  0  0  0  0
    4.5160   -9.3822   15.0841 C   0  0  0  0  0  0  0  0  0  0  0  0
  1  3  4  0
  1 24  4  0
  2  6  4  0
  2 15  4  0
  3  5  4  0
  3  6  4  0
  4 21  4  0
  4 29  4  0
  5 15  4  0
  5 28  1  0
  6 16  4  0
  7 18  4  0
  7 26  4  0
  8 18  1  0
  8 19  4  0
  8 22  4  0
  9 12  4  0
  9 19  4  0
 10 12  4  0
 10 22  4  0
 11 20  4  0
 11 21  4  0
 12 23  1  0
 13 20  4  0
 13 29  4  0
 14 17  4  0
 14 28  4  0
 15 25  2  0
 16 27  4  0
 17 18  4  0
 20 27  1  0
 24 27  4  0
 26 28  4  0
M  END
$$$$

 Created by Python create_sdf_string function

 29 33  0  0  0  0  0  0  0  0999 V2000
    8.8270   -7.0288   18.4251 C   0  0  0  0  0  0  0  0  0  0  0  0
    9.1576   -4.6236   15.8860 O   0  0  0  0  0  0  0  0  0  0  0  0
    9.1509   -5.9108   17.7177 C   0  0  0  0  0  0  0  0  0  0  0  0
    3.6373   -9.5349   16.0582 N   0  0  0  0  0  0  0  0  0  0  0  0
    9.9275   -4.8001   18.0438 N   0  0  0  0  0  0  0  0  0  0  0  0
    8.5908   -5.7425   16.4412 C   0  0  0  0  0  0  0  0  0  0  0  0
   10.5993   -4.8981   21.6068 C   0  0  0  0  0  0  0  0  0  0  0  0
   10.4258   -3.0106   23.0998 C   0  0  0  0  0  0  0  0  0  0  0  0
   10.2148   -3.4364   25.4200 C   0  0  0  0  0  0  0  0  0  0  0  0
    9.7853   -1.1840   24.4927 C   0  0  0  0  0  0  0  0  0  0  0  0
    5.0276   -8.5227   17.5352 C   0  0  0  0  0  0  0  0  0  0  0  0
    9.8187   -2.0895   25.5800 C   0  0  0  0  0  0  0  0  0  0  0  0
    5.6473   -8.7216   15.3158 C   0  0  0  0  0  0  0  0  0  0  0  0
   10.7581   -3.1233   19.4720 N   0  0  0  0  0  0  0  0  0  0  0  0
    9.9571   -4.0573   16.8866 C   0  0  0  0  0  0  0  0  0  0  0  0
    7.6213   -6.5618   16.0087 C   0  0  0  0  0  0  0  0  0  0  0  0
   10.8583   -2.6527   20.7222 C   0  0  0  0  0  0  0  0  0  0  0  0
   10.6412   -3.5089   21.7936 C   0  0  0  0  0  0  0  0  0  0  0  0
   10.4972   -3.8968   24.1589 C   0  0  0  0  0  0  0  0  0  0  0  0
    5.9260   -8.2736   16.5517 C   0  0  0  0  0  0  0  0  0  0  0  0
    3.8816   -9.1166   17.2493 C   0  0  0  0  0  0  0  0  0  0  0  0
   10.1297   -1.6575   23.2324 C   0  0  0  0  0  0  0  0  0  0  0  0
    9.4684   -1.6929   26.7263 F   0  0  0  0  0  0  0  0  0  0  0  0
    7.7963   -7.7906   17.9837 C   0  0  0  0  0  0  0  0  0  0  0  0
   10.5884   -3.0725   16.7902 O   0  0  0  0  0  0  0  0  0  0  0  0
   10.4323   -5.3494   20.3516 C   0  0  0  0  0  0  0  0  0  0  0  0
    7.1156   -7.5454   16.8218 C   0  0  0  0  0  0  0  0  0  0  0  0
   10.3885   -4.4388   19.2773 C   0  0  0  0  0  0  0  0  0  0  0  0
    4.5160   -9.3822   15.0841 C   0  0  0  0  0  0  0  0  0  0  0  0
  1  3  4  0
  1 24  4  0
  2  6  4  0
  2 15  4  0
  3  5  4  0
  3  6  4  0
  4 21  4  0
  4 29  4  0
  5 15  4  0
  5 28  1  0
  6 16  4  0
  7 18  4  0
  7 26  4  0
  8 18  1  0
  8 19  4  0
  8 22  4  0
  9 12  4  0
  9 19  4  0
 10 12  4  0
 10 22  4  0
 11 20  4  0
 11 21  4  0
 12 23  1  0
 13 20  4  0
 13 29  4  0
 14 17  4  0
 14 28  4  0
 15 25  2  0
 16 27  4  0
 17 18  4  0
 20 27  1  0
 24 27  4  0
 26 28  4  0
M  END
$$$$

 Created by Python create_sdf_string function

 29 33  0  0  0  0  0  0  0  0999 V2000
    8.8270   -7.0288   18.4251 C   0  0  0  0  0  0  0  0  0  0  0  0
    9.1576   -4.6236   15.8860 O   0  0  0  0  0  0  0  0  0  0  0  0
    9.1509   -5.9108   17.7177 C   0  0  0  0  0  0  0  0  0  0  0  0
    3.6373   -9.5349   16.0582 N   0  0  0  0  0  0  0  0  0  0  0  0
    9.9275   -4.8001   18.0438 N   0  0  0  0  0  0  0  0  0  0  0  0
    8.5908   -5.7425   16.4412 C   0  0  0  0  0  0  0  0  0  0  0  0
   10.5993   -4.8981   21.6068 C   0  0  0  0  0  0  0  0  0  0  0  0
   10.4258   -3.0106   23.0998 C   0  0  0  0  0  0  0  0  0  0  0  0
   10.2148   -3.4364   25.4200 C   0  0  0  0  0  0  0  0  0  0  0  0
    9.7853   -1.1840   24.4927 C   0  0  0  0  0  0  0  0  0  0  0  0
    5.0276   -8.5227   17.5352 C   0  0  0  0  0  0  0  0  0  0  0  0
    9.8187   -2.0895   25.5800 C   0  0  0  0  0  0  0  0  0  0  0  0
    5.6473   -8.7216   15.3158 C   0  0  0  0  0  0  0  0  0  0  0  0
   10.7581   -3.1233   19.4720 N   0  0  0  0  0  0  0  0  0  0  0  0
    9.9571   -4.0573   16.8866 C   0  0  0  0  0  0  0  0  0  0  0  0
    7.6213   -6.5618   16.0087 C   0  0  0  0  0  0  0  0  0  0  0  0
   10.8583   -2.6527   20.7222 C   0  0  0  0  0  0  0  0  0  0  0  0
   10.6412   -3.5089   21.7936 C   0  0  0  0  0  0  0  0  0  0  0  0
   10.4972   -3.8968   24.1589 C   0  0  0  0  0  0  0  0  0  0  0  0
    5.9260   -8.2736   16.5517 C   0  0  0  0  0  0  0  0  0  0  0  0
    3.8816   -9.1166   17.2493 C   0  0  0  0  0  0  0  0  0  0  0  0
   10.1297   -1.6575   23.2324 C   0  0  0  0  0  0  0  0  0  0  0  0
    9.4684   -1.6929   26.7263 F   0  0  0  0  0  0  0  0  0  0  0  0
    7.7963   -7.7906   17.9837 C   0  0  0  0  0  0  0  0  0  0  0  0
   10.5884   -3.0725   16.7902 O   0  0  0  0  0  0  0  0  0  0  0  0
   10.4323   -5.3494   20.3516 C   0  0  0  0  0  0  0  0  0  0  0  0
    7.1156   -7.5454   16.8218 C   0  0  0  0  0  0  0  0  0  0  0  0
   10.3885   -4.4388   19.2773 C   0  0  0  0  0  0  0  0  0  0  0  0
    4.5160   -9.3822   15.0841 C   0  0  0  0  0  0  0  0  0  0  0  0
  1  3  4  0
  1 24  4  0
  2  6  4  0
  2 15  4  0
  3  5  4  0
  3  6  4  0
  4 21  4  0
  4 29  4  0
  5 15  4  0
  5 28  1  0
  6 16  4  0
  7 18  4  0
  7 26  4  0
  8 18  1  0
  8 19  4  0
  8 22  4  0
  9 12  4  0
  9 19  4  0
 10 12  4  0
 10 22  4  0
 11 20  4  0
 11 21  4  0
 12 23  1  0
 13 20  4  0
 13 29  4  0
 14 17  4  0
 14 28  4  0
 15 25  2  0
 16 27  4  0
 17 18  4  0
 20 27  1  0
 24 27  4  0
 26 28  4  0
M  END
$$$$

 Created by Python create_sdf_string function

 29 33  0  0  0  0  0  0  0  0999 V2000
    8.8270   -7.0288   18.4251 C   0  0  0  0  0  0  0  0  0  0  0  0
    9.1576   -4.6236   15.8860 O   0  0  0  0  0  0  0  0  0  0  0  0
    9.1509   -5.9108   17.7177 C   0  0  0  0  0  0  0  0  0  0  0  0
    3.6373   -9.5349   16.0582 N   0  0  0  0  0  0  0  0  0  0  0  0
    9.9275   -4.8001   18.0438 N   0  0  0  0  0  0  0  0  0  0  0  0
    8.5908   -5.7425   16.4412 C   0  0  0  0  0  0  0  0  0  0  0  0
   10.5993   -4.8981   21.6068 C   0  0  0  0  0  0  0  0  0  0  0  0
   10.4258   -3.0106   23.0998 C   0  0  0  0  0  0  0  0  0  0  0  0
   10.2148   -3.4364   25.4200 C   0  0  0  0  0  0  0  0  0  0  0  0
    9.7853   -1.1840   24.4927 C   0  0  0  0  0  0  0  0  0  0  0  0
    5.0276   -8.5227   17.5352 C   0  0  0  0  0  0  0  0  0  0  0  0
    9.8187   -2.0895   25.5800 C   0  0  0  0  0  0  0  0  0  0  0  0
    5.6473   -8.7216   15.3158 C   0  0  0  0  0  0  0  0  0  0  0  0
   10.7581   -3.1233   19.4720 N   0  0  0  0  0  0  0  0  0  0  0  0
    9.9571   -4.0573   16.8866 C   0  0  0  0  0  0  0  0  0  0  0  0
    7.6213   -6.5618   16.0087 C   0  0  0  0  0  0  0  0  0  0  0  0
   10.8583   -2.6527   20.7222 C   0  0  0  0  0  0  0  0  0  0  0  0
   10.6412   -3.5089   21.7936 C   0  0  0  0  0  0  0  0  0  0  0  0
   10.4972   -3.8968   24.1589 C   0  0  0  0  0  0  0  0  0  0  0  0
    5.9260   -8.2736   16.5517 C   0  0  0  0  0  0  0  0  0  0  0  0
    3.8816   -9.1166   17.2493 C   0  0  0  0  0  0  0  0  0  0  0  0
   10.1297   -1.6575   23.2324 C   0  0  0  0  0  0  0  0  0  0  0  0
    9.4684   -1.6929   26.7263 F   0  0  0  0  0  0  0  0  0  0  0  0
    7.7963   -7.7906   17.9837 C   0  0  0  0  0  0  0  0  0  0  0  0
   10.5884   -3.0725   16.7902 O   0  0  0  0  0  0  0  0  0  0  0  0
   10.4323   -5.3494   20.3516 C   0  0  0  0  0  0  0  0  0  0  0  0
    7.1156   -7.5454   16.8218 C   0  0  0  0  0  0  0  0  0  0  0  0
   10.3885   -4.4388   19.2773 C   0  0  0  0  0  0  0  0  0  0  0  0
    4.5160   -9.3822   15.0841 C   0  0  0  0  0  0  0  0  0  0  0  0
  1  3  4  0
  1 24  4  0
  2  6  4  0
  2 15  4  0
  3  5  4  0
  3  6  4  0
  4 21  4  0
  4 29  4  0
  5 15  4  0
  5 28  1  0
  6 16  4  0
  7 18  4  0
  7 26  4  0
  8 18  1  0
  8 19  4  0
  8 22  4  0
  9 12  4  0
  9 19  4  0
 10 12  4  0
 10 22  4  0
 11 20  4  0
 11 21  4  0
 12 23  1  0
 13 20  4  0
 13 29  4  0
 14 17  4  0
 14 28  4  0
 15 25  2  0
 16 27  4  0
 17 18  4  0
 20 27  1  0
 24 27  4  0
 26 28  4  0
M  END
$$$$

 Created by Python create_sdf_string function

 29 33  0  0  0  0  0  0  0  0999 V2000
    8.8270   -7.0288   18.4251 C   0  0  0  0  0  0  0  0  0  0  0  0
    9.1576   -4.6236   15.8860 O   0  0  0  0  0  0  0  0  0  0  0  0
    9.1509   -5.9108   17.7177 C   0  0  0  0  0  0  0  0  0  0  0  0
    3.6373   -9.5349   16.0582 N   0  0  0  0  0  0  0  0  0  0  0  0
    9.9275   -4.8001   18.0438 N   0  0  0  0  0  0  0  0  0  0  0  0
    8.5908   -5.7425   16.4412 C   0  0  0  0  0  0  0  0  0  0  0  0
   10.5993   -4.8981   21.6068 C   0  0  0  0  0  0  0  0  0  0  0  0
   10.4258   -3.0106   23.0998 C   0  0  0  0  0  0  0  0  0  0  0  0
   10.2148   -3.4364   25.4200 C   0  0  0  0  0  0  0  0  0  0  0  0
    9.7853   -1.1840   24.4927 C   0  0  0  0  0  0  0  0  0  0  0  0
    5.0276   -8.5227   17.5352 C   0  0  0  0  0  0  0  0  0  0  0  0
    9.8187   -2.0895   25.5800 C   0  0  0  0  0  0  0  0  0  0  0  0
    5.6473   -8.7216   15.3158 C   0  0  0  0  0  0  0  0  0  0  0  0
   10.7581   -3.1233   19.4720 N   0  0  0  0  0  0  0  0  0  0  0  0
    9.9571   -4.0573   16.8866 C   0  0  0  0  0  0  0  0  0  0  0  0
    7.6213   -6.5618   16.0087 C   0  0  0  0  0  0  0  0  0  0  0  0
   10.8583   -2.6527   20.7222 C   0  0  0  0  0  0  0  0  0  0  0  0
   10.6412   -3.5089   21.7936 C   0  0  0  0  0  0  0  0  0  0  0  0
   10.4972   -3.8968   24.1589 C   0  0  0  0  0  0  0  0  0  0  0  0
    5.9260   -8.2736   16.5517 C   0  0  0  0  0  0  0  0  0  0  0  0
    3.8816   -9.1166   17.2493 C   0  0  0  0  0  0  0  0  0  0  0  0
   10.1297   -1.6575   23.2324 C   0  0  0  0  0  0  0  0  0  0  0  0
    9.4684   -1.6929   26.7263 F   0  0  0  0  0  0  0  0  0  0  0  0
    7.7963   -7.7906   17.9837 C   0  0  0  0  0  0  0  0  0  0  0  0
   10.5884   -3.0725   16.7902 O   0  0  0  0  0  0  0  0  0  0  0  0
   10.4323   -5.3494   20.3516 C   0  0  0  0  0  0  0  0  0  0  0  0
    7.1156   -7.5454   16.8218 C   0  0  0  0  0  0  0  0  0  0  0  0
   10.3885   -4.4388   19.2773 C   0  0  0  0  0  0  0  0  0  0  0  0
    4.5160   -9.3822   15.0841 C   0  0  0  0  0  0  0  0  0  0  0  0
  1  3  4  0
  1 24  4  0
  2  6  4  0
  2 15  4  0
  3  5  4  0
  3  6  4  0
  4 21  4  0
  4 29  4  0
  5 15  4  0
  5 28  1  0
  6 16  4  0
  7 18  4  0
  7 26  4  0
  8 18  1  0
  8 19  4  0
  8 22  4  0
  9 12  4  0
  9 19  4  0
 10 12  4  0
 10 22  4  0
 11 20  4  0
 11 21  4  0
 12 23  1  0
 13 20  4  0
 13 29  4  0
 14 17  4  0
 14 28  4  0
 15 25  2  0
 16 27  4  0
 17 18  4  0
 20 27  1  0
 24 27  4  0
 26 28  4  0
M  END
$$$$

 Created by Python create_sdf_string function

 29 33  0  0  0  0  0  0  0  0999 V2000
    8.8270   -7.0288   18.4251 C   0  0  0  0  0  0  0  0  0  0  0  0
    9.1576   -4.6236   15.8860 O   0  0  0  0  0  0  0  0  0  0  0  0
    9.1509   -5.9108   17.7177 C   0  0  0  0  0  0  0  0  0  0  0  0
    3.6373   -9.5349   16.0582 N   0  0  0  0  0  0  0  0  0  0  0  0
    9.9275   -4.8001   18.0438 N   0  0  0  0  0  0  0  0  0  0  0  0
    8.5908   -5.7425   16.4412 C   0  0  0  0  0  0  0  0  0  0  0  0
   10.5993   -4.8981   21.6068 C   0  0  0  0  0  0  0  0  0  0  0  0
   10.4258   -3.0106   23.0998 C   0  0  0  0  0  0  0  0  0  0  0  0
   10.2148   -3.4364   25.4200 C   0  0  0  0  0  0  0  0  0  0  0  0
    9.7853   -1.1840   24.4927 C   0  0  0  0  0  0  0  0  0  0  0  0
    5.0276   -8.5227   17.5352 C   0  0  0  0  0  0  0  0  0  0  0  0
    9.8187   -2.0895   25.5800 C   0  0  0  0  0  0  0  0  0  0  0  0
    5.6473   -8.7216   15.3158 C   0  0  0  0  0  0  0  0  0  0  0  0
   10.7581   -3.1233   19.4720 N   0  0  0  0  0  0  0  0  0  0  0  0
    9.9571   -4.0573   16.8866 C   0  0  0  0  0  0  0  0  0  0  0  0
    7.6213   -6.5618   16.0087 C   0  0  0  0  0  0  0  0  0  0  0  0
   10.8583   -2.6527   20.7222 C   0  0  0  0  0  0  0  0  0  0  0  0
   10.6412   -3.5089   21.7936 C   0  0  0  0  0  0  0  0  0  0  0  0
   10.4972   -3.8968   24.1589 C   0  0  0  0  0  0  0  0  0  0  0  0
    5.9260   -8.2736   16.5517 C   0  0  0  0  0  0  0  0  0  0  0  0
    3.8816   -9.1166   17.2493 C   0  0  0  0  0  0  0  0  0  0  0  0
   10.1297   -1.6575   23.2324 C   0  0  0  0  0  0  0  0  0  0  0  0
    9.4684   -1.6929   26.7263 F   0  0  0  0  0  0  0  0  0  0  0  0
    7.7963   -7.7906   17.9837 C   0  0  0  0  0  0  0  0  0  0  0  0
   10.5884   -3.0725   16.7902 O   0  0  0  0  0  0  0  0  0  0  0  0
   10.4323   -5.3494   20.3516 C   0  0  0  0  0  0  0  0  0  0  0  0
    7.1156   -7.5454   16.8218 C   0  0  0  0  0  0  0  0  0  0  0  0
   10.3885   -4.4388   19.2773 C   0  0  0  0  0  0  0  0  0  0  0  0
    4.5160   -9.3822   15.0841 C   0  0  0  0  0  0  0  0  0  0  0  0
  1  3  4  0
  1 24  4  0
  2  6  4  0
  2 15  4  0
  3  5  4  0
  3  6  4  0
  4 21  4  0
  4 29  4  0
  5 15  4  0
  5 28  1  0
  6 16  4  0
  7 18  4  0
  7 26  4  0
  8 18  1  0
  8 19  4  0
  8 22  4  0
  9 12  4  0
  9 19  4  0
 10 12  4  0
 10 22  4  0
 11 20  4  0
 11 21  4  0
 12 23  1  0
 13 20  4  0
 13 29  4  0
 14 17  4  0
 14 28  4  0
 15 25  2  0
 16 27  4  0
 17 18  4  0
 20 27  1  0
 24 27  4  0
 26 28  4  0
M  END
$$$$

 Created by Python create_sdf_string function

 29 33  0  0  0  0  0  0  0  0999 V2000
    8.8270   -7.0288   18.4251 C   0  0  0  0  0  0  0  0  0  0  0  0
    9.1576   -4.6236   15.8860 O   0  0  0  0  0  0  0  0  0  0  0  0
    9.1509   -5.9108   17.7177 C   0  0  0  0  0  0  0  0  0  0  0  0
    3.6373   -9.5349   16.0582 N   0  0  0  0  0  0  0  0  0  0  0  0
    9.9275   -4.8001   18.0438 N   0  0  0  0  0  0  0  0  0  0  0  0
    8.5908   -5.7425   16.4412 C   0  0  0  0  0  0  0  0  0  0  0  0
   10.5993   -4.8981   21.6068 C   0  0  0  0  0  0  0  0  0  0  0  0
   10.4258   -3.0106   23.0998 C   0  0  0  0  0  0  0  0  0  0  0  0
   10.2148   -3.4364   25.4200 C   0  0  0  0  0  0  0  0  0  0  0  0
    9.7853   -1.1840   24.4927 C   0  0  0  0  0  0  0  0  0  0  0  0
    5.0276   -8.5227   17.5352 C   0  0  0  0  0  0  0  0  0  0  0  0
    9.8187   -2.0895   25.5800 C   0  0  0  0  0  0  0  0  0  0  0  0
    5.6473   -8.7216   15.3158 C   0  0  0  0  0  0  0  0  0  0  0  0
   10.7581   -3.1233   19.4720 N   0  0  0  0  0  0  0  0  0  0  0  0
    9.9571   -4.0573   16.8866 C   0  0  0  0  0  0  0  0  0  0  0  0
    7.6213   -6.5618   16.0087 C   0  0  0  0  0  0  0  0  0  0  0  0
   10.8583   -2.6527   20.7222 C   0  0  0  0  0  0  0  0  0  0  0  0
   10.6412   -3.5089   21.7936 C   0  0  0  0  0  0  0  0  0  0  0  0
   10.4972   -3.8968   24.1589 C   0  0  0  0  0  0  0  0  0  0  0  0
    5.9260   -8.2736   16.5517 C   0  0  0  0  0  0  0  0  0  0  0  0
    3.8816   -9.1166   17.2493 C   0  0  0  0  0  0  0  0  0  0  0  0
   10.1297   -1.6575   23.2324 C   0  0  0  0  0  0  0  0  0  0  0  0
    9.4684   -1.6929   26.7263 F   0  0  0  0  0  0  0  0  0  0  0  0
    7.7963   -7.7906   17.9837 C   0  0  0  0  0  0  0  0  0  0  0  0
   10.5884   -3.0725   16.7902 O   0  0  0  0  0  0  0  0  0  0  0  0
   10.4323   -5.3494   20.3516 C   0  0  0  0  0  0  0  0  0  0  0  0
    7.1156   -7.5454   16.8218 C   0  0  0  0  0  0  0  0  0  0  0  0
   10.3885   -4.4388   19.2773 C   0  0  0  0  0  0  0  0  0  0  0  0
    4.5160   -9.3822   15.0841 C   0  0  0  0  0  0  0  0  0  0  0  0
  1  3  4  0
  1 24  4  0
  2  6  4  0
  2 15  4  0
  3  5  4  0
  3  6  4  0
  4 21  4  0
  4 29  4  0
  5 15  4  0
  5 28  1  0
  6 16  4  0
  7 18  4  0
  7 26  4  0
  8 18  1  0
  8 19  4  0
  8 22  4  0
  9 12  4  0
  9 19  4  0
 10 12  4  0
 10 22  4  0
 11 20  4  0
 11 21  4  0
 12 23  1  0
 13 20  4  0
 13 29  4  0
 14 17  4  0
 14 28  4  0
 15 25  2  0
 16 27  4  0
 17 18  4  0
 20 27  1  0
 24 27  4  0
 26 28  4  0
M  END
$$$$

 Created by Python create_sdf_string function

 29 33  0  0  0  0  0  0  0  0999 V2000
    8.8270   -7.0288   18.4251 C   0  0  0  0  0  0  0  0  0  0  0  0
    9.1576   -4.6236   15.8860 O   0  0  0  0  0  0  0  0  0  0  0  0
    9.1509   -5.9108   17.7177 C   0  0  0  0  0  0  0  0  0  0  0  0
    3.6373   -9.5349   16.0582 N   0  0  0  0  0  0  0  0  0  0  0  0
    9.9275   -4.8001   18.0438 N   0  0  0  0  0  0  0  0  0  0  0  0
    8.5908   -5.7425   16.4412 C   0  0  0  0  0  0  0  0  0  0  0  0
   10.5993   -4.8981   21.6068 C   0  0  0  0  0  0  0  0  0  0  0  0
   10.4258   -3.0106   23.0998 C   0  0  0  0  0  0  0  0  0  0  0  0
   10.2148   -3.4364   25.4200 C   0  0  0  0  0  0  0  0  0  0  0  0
    9.7853   -1.1840   24.4927 C   0  0  0  0  0  0  0  0  0  0  0  0
    5.0276   -8.5227   17.5352 C   0  0  0  0  0  0  0  0  0  0  0  0
    9.8187   -2.0895   25.5800 C   0  0  0  0  0  0  0  0  0  0  0  0
    5.6473   -8.7216   15.3158 C   0  0  0  0  0  0  0  0  0  0  0  0
   10.7581   -3.1233   19.4720 N   0  0  0  0  0  0  0  0  0  0  0  0
    9.9571   -4.0573   16.8866 C   0  0  0  0  0  0  0  0  0  0  0  0
    7.6213   -6.5618   16.0087 C   0  0  0  0  0  0  0  0  0  0  0  0
   10.8583   -2.6527   20.7222 C   0  0  0  0  0  0  0  0  0  0  0  0
   10.6412   -3.5089   21.7936 C   0  0  0  0  0  0  0  0  0  0  0  0
   10.4972   -3.8968   24.1589 C   0  0  0  0  0  0  0  0  0  0  0  0
    5.9260   -8.2736   16.5517 C   0  0  0  0  0  0  0  0  0  0  0  0
    3.8816   -9.1166   17.2493 C   0  0  0  0  0  0  0  0  0  0  0  0
   10.1297   -1.6575   23.2324 C   0  0  0  0  0  0  0  0  0  0  0  0
    9.4684   -1.6929   26.7263 F   0  0  0  0  0  0  0  0  0  0  0  0
    7.7963   -7.7906   17.9837 C   0  0  0  0  0  0  0  0  0  0  0  0
   10.5884   -3.0725   16.7902 O   0  0  0  0  0  0  0  0  0  0  0  0
   10.4323   -5.3494   20.3516 C   0  0  0  0  0  0  0  0  0  0  0  0
    7.1156   -7.5454   16.8218 C   0  0  0  0  0  0  0  0  0  0  0  0
   10.3885   -4.4388   19.2773 C   0  0  0  0  0  0  0  0  0  0  0  0
    4.5160   -9.3822   15.0841 C   0  0  0  0  0  0  0  0  0  0  0  0
  1  3  4  0
  1 24  4  0
  2  6  4  0
  2 15  4  0
  3  5  4  0
  3  6  4  0
  4 21  4  0
  4 29  4  0
  5 15  4  0
  5 28  1  0
  6 16  4  0
  7 18  4  0
  7 26  4  0
  8 18  1  0
  8 19  4  0
  8 22  4  0
  9 12  4  0
  9 19  4  0
 10 12  4  0
 10 22  4  0
 11 20  4  0
 11 21  4  0
 12 23  1  0
 13 20  4  0
 13 29  4  0
 14 17  4  0
 14 28  4  0
 15 25  2  0
 16 27  4  0
 17 18  4  0
 20 27  1  0
 24 27  4  0
 26 28  4  0
M  END
$$$$

 Created by Python create_sdf_string function

 29 33  0  0  0  0  0  0  0  0999 V2000
    8.8270   -7.0288   18.4251 C   0  0  0  0  0  0  0  0  0  0  0  0
    9.1576   -4.6236   15.8860 O   0  0  0  0  0  0  0  0  0  0  0  0
    9.1509   -5.9108   17.7177 C   0  0  0  0  0  0  0  0  0  0  0  0
    3.6373   -9.5349   16.0582 N   0  0  0  0  0  0  0  0  0  0  0  0
    9.9275   -4.8001   18.0438 N   0  0  0  0  0  0  0  0  0  0  0  0
    8.5908   -5.7425   16.4412 C   0  0  0  0  0  0  0  0  0  0  0  0
   10.5993   -4.8981   21.6068 C   0  0  0  0  0  0  0  0  0  0  0  0
   10.4258   -3.0106   23.0998 C   0  0  0  0  0  0  0  0  0  0  0  0
   10.2148   -3.4364   25.4200 C   0  0  0  0  0  0  0  0  0  0  0  0
    9.7853   -1.1840   24.4927 C   0  0  0  0  0  0  0  0  0  0  0  0
    5.0276   -8.5227   17.5352 C   0  0  0  0  0  0  0  0  0  0  0  0
    9.8187   -2.0895   25.5800 C   0  0  0  0  0  0  0  0  0  0  0  0
    5.6473   -8.7216   15.3158 C   0  0  0  0  0  0  0  0  0  0  0  0
   10.7581   -3.1233   19.4720 N   0  0  0  0  0  0  0  0  0  0  0  0
    9.9571   -4.0573   16.8866 C   0  0  0  0  0  0  0  0  0  0  0  0
    7.6213   -6.5618   16.0087 C   0  0  0  0  0  0  0  0  0  0  0  0
   10.8583   -2.6527   20.7222 C   0  0  0  0  0  0  0  0  0  0  0  0
   10.6412   -3.5089   21.7936 C   0  0  0  0  0  0  0  0  0  0  0  0
   10.4972   -3.8968   24.1589 C   0  0  0  0  0  0  0  0  0  0  0  0
    5.9260   -8.2736   16.5517 C   0  0  0  0  0  0  0  0  0  0  0  0
    3.8816   -9.1166   17.2493 C   0  0  0  0  0  0  0  0  0  0  0  0
   10.1297   -1.6575   23.2324 C   0  0  0  0  0  0  0  0  0  0  0  0
    9.4684   -1.6929   26.7263 F   0  0  0  0  0  0  0  0  0  0  0  0
    7.7963   -7.7906   17.9837 C   0  0  0  0  0  0  0  0  0  0  0  0
   10.5884   -3.0725   16.7902 O   0  0  0  0  0  0  0  0  0  0  0  0
   10.4323   -5.3494   20.3516 C   0  0  0  0  0  0  0  0  0  0  0  0
    7.1156   -7.5454   16.8218 C   0  0  0  0  0  0  0  0  0  0  0  0
   10.3885   -4.4388   19.2773 C   0  0  0  0  0  0  0  0  0  0  0  0
    4.5160   -9.3822   15.0841 C   0  0  0  0  0  0  0  0  0  0  0  0
  1  3  4  0
  1 24  4  0
  2  6  4  0
  2 15  4  0
  3  5  4  0
  3  6  4  0
  4 21  4  0
  4 29  4  0
  5 15  4  0
  5 28  1  0
  6 16  4  0
  7 18  4  0
  7 26  4  0
  8 18  1  0
  8 19  4  0
  8 22  4  0
  9 12  4  0
  9 19  4  0
 10 12  4  0
 10 22  4  0
 11 20  4  0
 11 21  4  0
 12 23  1  0
 13 20  4  0
 13 29  4  0
 14 17  4  0
 14 28  4  0
 15 25  2  0
 16 27  4  0
 17 18  4  0
 20 27  1  0
 24 27  4  0
 26 28  4  0
M  END
$$$$

 Created by Python create_sdf_string function

 29 33  0  0  0  0  0  0  0  0999 V2000
    8.8270   -7.0288   18.4251 C   0  0  0  0  0  0  0  0  0  0  0  0
    9.1576   -4.6236   15.8860 O   0  0  0  0  0  0  0  0  0  0  0  0
    9.1509   -5.9108   17.7177 C   0  0  0  0  0  0  0  0  0  0  0  0
    3.6373   -9.5349   16.0582 N   0  0  0  0  0  0  0  0  0  0  0  0
    9.9275   -4.8001   18.0438 N   0  0  0  0  0  0  0  0  0  0  0  0
    8.5908   -5.7425   16.4412 C   0  0  0  0  0  0  0  0  0  0  0  0
   10.5993   -4.8981   21.6068 C   0  0  0  0  0  0  0  0  0  0  0  0
   10.4258   -3.0106   23.0998 C   0  0  0  0  0  0  0  0  0  0  0  0
   10.2148   -3.4364   25.4200 C   0  0  0  0  0  0  0  0  0  0  0  0
    9.7853   -1.1840   24.4927 C   0  0  0  0  0  0  0  0  0  0  0  0
    5.0276   -8.5227   17.5352 C   0  0  0  0  0  0  0  0  0  0  0  0
    9.8187   -2.0895   25.5800 C   0  0  0  0  0  0  0  0  0  0  0  0
    5.6473   -8.7216   15.3158 C   0  0  0  0  0  0  0  0  0  0  0  0
   10.7581   -3.1233   19.4720 N   0  0  0  0  0  0  0  0  0  0  0  0
    9.9571   -4.0573   16.8866 C   0  0  0  0  0  0  0  0  0  0  0  0
    7.6213   -6.5618   16.0087 C   0  0  0  0  0  0  0  0  0  0  0  0
   10.8583   -2.6527   20.7222 C   0  0  0  0  0  0  0  0  0  0  0  0
   10.6412   -3.5089   21.7936 C   0  0  0  0  0  0  0  0  0  0  0  0
   10.4972   -3.8968   24.1589 C   0  0  0  0  0  0  0  0  0  0  0  0
    5.9260   -8.2736   16.5517 C   0  0  0  0  0  0  0  0  0  0  0  0
    3.8816   -9.1166   17.2493 C   0  0  0  0  0  0  0  0  0  0  0  0
   10.1297   -1.6575   23.2324 C   0  0  0  0  0  0  0  0  0  0  0  0
    9.4684   -1.6929   26.7263 F   0  0  0  0  0  0  0  0  0  0  0  0
    7.7963   -7.7906   17.9837 C   0  0  0  0  0  0  0  0  0  0  0  0
   10.5884   -3.0725   16.7902 O   0  0  0  0  0  0  0  0  0  0  0  0
   10.4323   -5.3494   20.3516 C   0  0  0  0  0  0  0  0  0  0  0  0
    7.1156   -7.5454   16.8218 C   0  0  0  0  0  0  0  0  0  0  0  0
   10.3885   -4.4388   19.2773 C   0  0  0  0  0  0  0  0  0  0  0  0
    4.5160   -9.3822   15.0841 C   0  0  0  0  0  0  0  0  0  0  0  0
  1  3  4  0
  1 24  4  0
  2  6  4  0
  2 15  4  0
  3  5  4  0
  3  6  4  0
  4 21  4  0
  4 29  4  0
  5 15  4  0
  5 28  1  0
  6 16  4  0
  7 18  4  0
  7 26  4  0
  8 18  1  0
  8 19  4  0
  8 22  4  0
  9 12  4  0
  9 19  4  0
 10 12  4  0
 10 22  4  0
 11 20  4  0
 11 21  4  0
 12 23  1  0
 13 20  4  0
 13 29  4  0
 14 17  4  0
 14 28  4  0
 15 25  2  0
 16 27  4  0
 17 18  4  0
 20 27  1  0
 24 27  4  0
 26 28  4  0
M  END
$$$$

 Created by Python create_sdf_string function

 29 33  0  0  0  0  0  0  0  0999 V2000
    8.8270   -7.0288   18.4251 C   0  0  0  0  0  0  0  0  0  0  0  0
    9.1576   -4.6236   15.8860 O   0  0  0  0  0  0  0  0  0  0  0  0
    9.1509   -5.9108   17.7177 C   0  0  0  0  0  0  0  0  0  0  0  0
    3.6373   -9.5349   16.0582 N   0  0  0  0  0  0  0  0  0  0  0  0
    9.9275   -4.8001   18.0438 N   0  0  0  0  0  0  0  0  0  0  0  0
    8.5908   -5.7425   16.4412 C   0  0  0  0  0  0  0  0  0  0  0  0
   10.5993   -4.8981   21.6068 C   0  0  0  0  0  0  0  0  0  0  0  0
   10.4258   -3.0106   23.0998 C   0  0  0  0  0  0  0  0  0  0  0  0
   10.2148   -3.4364   25.4200 C   0  0  0  0  0  0  0  0  0  0  0  0
    9.7853   -1.1840   24.4927 C   0  0  0  0  0  0  0  0  0  0  0  0
    5.0276   -8.5227   17.5352 C   0  0  0  0  0  0  0  0  0  0  0  0
    9.8187   -2.0895   25.5800 C   0  0  0  0  0  0  0  0  0  0  0  0
    5.6473   -8.7216   15.3158 C   0  0  0  0  0  0  0  0  0  0  0  0
   10.7581   -3.1233   19.4720 N   0  0  0  0  0  0  0  0  0  0  0  0
    9.9571   -4.0573   16.8866 C   0  0  0  0  0  0  0  0  0  0  0  0
    7.6213   -6.5618   16.0087 C   0  0  0  0  0  0  0  0  0  0  0  0
   10.8583   -2.6527   20.7222 C   0  0  0  0  0  0  0  0  0  0  0  0
   10.6412   -3.5089   21.7936 C   0  0  0  0  0  0  0  0  0  0  0  0
   10.4972   -3.8968   24.1589 C   0  0  0  0  0  0  0  0  0  0  0  0
    5.9260   -8.2736   16.5517 C   0  0  0  0  0  0  0  0  0  0  0  0
    3.8816   -9.1166   17.2493 C   0  0  0  0  0  0  0  0  0  0  0  0
   10.1297   -1.6575   23.2324 C   0  0  0  0  0  0  0  0  0  0  0  0
    9.4684   -1.6929   26.7263 F   0  0  0  0  0  0  0  0  0  0  0  0
    7.7963   -7.7906   17.9837 C   0  0  0  0  0  0  0  0  0  0  0  0
   10.5884   -3.0725   16.7902 O   0  0  0  0  0  0  0  0  0  0  0  0
   10.4323   -5.3494   20.3516 C   0  0  0  0  0  0  0  0  0  0  0  0
    7.1156   -7.5454   16.8218 C   0  0  0  0  0  0  0  0  0  0  0  0
   10.3885   -4.4388   19.2773 C   0  0  0  0  0  0  0  0  0  0  0  0
    4.5160   -9.3822   15.0841 C   0  0  0  0  0  0  0  0  0  0  0  0
  1  3  4  0
  1 24  4  0
  2  6  4  0
  2 15  4  0
  3  5  4  0
  3  6  4  0
  4 21  4  0
  4 29  4  0
  5 15  4  0
  5 28  1  0
  6 16  4  0
  7 18  4  0
  7 26  4  0
  8 18  1  0
  8 19  4  0
  8 22  4  0
  9 12  4  0
  9 19  4  0
 10 12  4  0
 10 22  4  0
 11 20  4  0
 11 21  4  0
 12 23  1  0
 13 20  4  0
 13 29  4  0
 14 17  4  0
 14 28  4  0
 15 25  2  0
 16 27  4  0
 17 18  4  0
 20 27  1  0
 24 27  4  0
 26 28  4  0
M  END
$$$$

 Created by Python create_sdf_string function

 29 33  0  0  0  0  0  0  0  0999 V2000
    8.8270   -7.0288   18.4251 C   0  0  0  0  0  0  0  0  0  0  0  0
    9.1576   -4.6236   15.8860 O   0  0  0  0  0  0  0  0  0  0  0  0
    9.1509   -5.9108   17.7177 C   0  0  0  0  0  0  0  0  0  0  0  0
    3.6373   -9.5349   16.0582 N   0  0  0  0  0  0  0  0  0  0  0  0
    9.9275   -4.8001   18.0438 N   0  0  0  0  0  0  0  0  0  0  0  0
    8.5908   -5.7425   16.4412 C   0  0  0  0  0  0  0  0  0  0  0  0
   10.5993   -4.8981   21.6068 C   0  0  0  0  0  0  0  0  0  0  0  0
   10.4258   -3.0106   23.0998 C   0  0  0  0  0  0  0  0  0  0  0  0
   10.2148   -3.4364   25.4200 C   0  0  0  0  0  0  0  0  0  0  0  0
    9.7853   -1.1840   24.4927 C   0  0  0  0  0  0  0  0  0  0  0  0
    5.0276   -8.5227   17.5352 C   0  0  0  0  0  0  0  0  0  0  0  0
    9.8187   -2.0895   25.5800 C   0  0  0  0  0  0  0  0  0  0  0  0
    5.6473   -8.7216   15.3158 C   0  0  0  0  0  0  0  0  0  0  0  0
   10.7581   -3.1233   19.4720 N   0  0  0  0  0  0  0  0  0  0  0  0
    9.9571   -4.0573   16.8866 C   0  0  0  0  0  0  0  0  0  0  0  0
    7.6213   -6.5618   16.0087 C   0  0  0  0  0  0  0  0  0  0  0  0
   10.8583   -2.6527   20.7222 C   0  0  0  0  0  0  0  0  0  0  0  0
   10.6412   -3.5089   21.7936 C   0  0  0  0  0  0  0  0  0  0  0  0
   10.4972   -3.8968   24.1589 C   0  0  0  0  0  0  0  0  0  0  0  0
    5.9260   -8.2736   16.5517 C   0  0  0  0  0  0  0  0  0  0  0  0
    3.8816   -9.1166   17.2493 C   0  0  0  0  0  0  0  0  0  0  0  0
   10.1297   -1.6575   23.2324 C   0  0  0  0  0  0  0  0  0  0  0  0
    9.4684   -1.6929   26.7263 F   0  0  0  0  0  0  0  0  0  0  0  0
    7.7963   -7.7906   17.9837 C   0  0  0  0  0  0  0  0  0  0  0  0
   10.5884   -3.0725   16.7902 O   0  0  0  0  0  0  0  0  0  0  0  0
   10.4323   -5.3494   20.3516 C   0  0  0  0  0  0  0  0  0  0  0  0
    7.1156   -7.5454   16.8218 C   0  0  0  0  0  0  0  0  0  0  0  0
   10.3885   -4.4388   19.2773 C   0  0  0  0  0  0  0  0  0  0  0  0
    4.5160   -9.3822   15.0841 C   0  0  0  0  0  0  0  0  0  0  0  0
  1  3  4  0
  1 24  4  0
  2  6  4  0
  2 15  4  0
  3  5  4  0
  3  6  4  0
  4 21  4  0
  4 29  4  0
  5 15  4  0
  5 28  1  0
  6 16  4  0
  7 18  4  0
  7 26  4  0
  8 18  1  0
  8 19  4  0
  8 22  4  0
  9 12  4  0
  9 19  4  0
 10 12  4  0
 10 22  4  0
 11 20  4  0
 11 21  4  0
 12 23  1  0
 13 20  4  0
 13 29  4  0
 14 17  4  0
 14 28  4  0
 15 25  2  0
 16 27  4  0
 17 18  4  0
 20 27  1  0
 24 27  4  0
 26 28  4  0
M  END
$$$$

 Created by Python create_sdf_string function

 29 33  0  0  0  0  0  0  0  0999 V2000
    8.8270   -7.0288   18.4251 C   0  0  0  0  0  0  0  0  0  0  0  0
    9.1576   -4.6236   15.8860 O   0  0  0  0  0  0  0  0  0  0  0  0
    9.1509   -5.9108   17.7177 C   0  0  0  0  0  0  0  0  0  0  0  0
    3.6373   -9.5349   16.0582 N   0  0  0  0  0  0  0  0  0  0  0  0
    9.9275   -4.8001   18.0438 N   0  0  0  0  0  0  0  0  0  0  0  0
    8.5908   -5.7425   16.4412 C   0  0  0  0  0  0  0  0  0  0  0  0
   10.5993   -4.8981   21.6068 C   0  0  0  0  0  0  0  0  0  0  0  0
   10.4258   -3.0106   23.0998 C   0  0  0  0  0  0  0  0  0  0  0  0
   10.2148   -3.4364   25.4200 C   0  0  0  0  0  0  0  0  0  0  0  0
    9.7853   -1.1840   24.4927 C   0  0  0  0  0  0  0  0  0  0  0  0
    5.0276   -8.5227   17.5352 C   0  0  0  0  0  0  0  0  0  0  0  0
    9.8187   -2.0895   25.5800 C   0  0  0  0  0  0  0  0  0  0  0  0
    5.6473   -8.7216   15.3158 C   0  0  0  0  0  0  0  0  0  0  0  0
   10.7581   -3.1233   19.4720 N   0  0  0  0  0  0  0  0  0  0  0  0
    9.9571   -4.0573   16.8866 C   0  0  0  0  0  0  0  0  0  0  0  0
    7.6213   -6.5618   16.0087 C   0  0  0  0  0  0  0  0  0  0  0  0
   10.8583   -2.6527   20.7222 C   0  0  0  0  0  0  0  0  0  0  0  0
   10.6412   -3.5089   21.7936 C   0  0  0  0  0  0  0  0  0  0  0  0
   10.4972   -3.8968   24.1589 C   0  0  0  0  0  0  0  0  0  0  0  0
    5.9260   -8.2736   16.5517 C   0  0  0  0  0  0  0  0  0  0  0  0
    3.8816   -9.1166   17.2493 C   0  0  0  0  0  0  0  0  0  0  0  0
   10.1297   -1.6575   23.2324 C   0  0  0  0  0  0  0  0  0  0  0  0
    9.4684   -1.6929   26.7263 F   0  0  0  0  0  0  0  0  0  0  0  0
    7.7963   -7.7906   17.9837 C   0  0  0  0  0  0  0  0  0  0  0  0
   10.5884   -3.0725   16.7902 O   0  0  0  0  0  0  0  0  0  0  0  0
   10.4323   -5.3494   20.3516 C   0  0  0  0  0  0  0  0  0  0  0  0
    7.1156   -7.5454   16.8218 C   0  0  0  0  0  0  0  0  0  0  0  0
   10.3885   -4.4388   19.2773 C   0  0  0  0  0  0  0  0  0  0  0  0
    4.5160   -9.3822   15.0841 C   0  0  0  0  0  0  0  0  0  0  0  0
  1  3  4  0
  1 24  4  0
  2  6  4  0
  2 15  4  0
  3  5  4  0
  3  6  4  0
  4 21  4  0
  4 29  4  0
  5 15  4  0
  5 28  1  0
  6 16  4  0
  7 18  4  0
  7 26  4  0
  8 18  1  0
  8 19  4  0
  8 22  4  0
  9 12  4  0
  9 19  4  0
 10 12  4  0
 10 22  4  0
 11 20  4  0
 11 21  4  0
 12 23  1  0
 13 20  4  0
 13 29  4  0
 14 17  4  0
 14 28  4  0
 15 25  2  0
 16 27  4  0
 17 18  4  0
 20 27  1  0
 24 27  4  0
 26 28  4  0
M  END
$$$$

 Created by Python create_sdf_string function

 29 33  0  0  0  0  0  0  0  0999 V2000
    8.8270   -7.0288   18.4251 C   0  0  0  0  0  0  0  0  0  0  0  0
    9.1576   -4.6236   15.8860 O   0  0  0  0  0  0  0  0  0  0  0  0
    9.1509   -5.9108   17.7177 C   0  0  0  0  0  0  0  0  0  0  0  0
    3.6373   -9.5349   16.0582 N   0  0  0  0  0  0  0  0  0  0  0  0
    9.9275   -4.8001   18.0438 N   0  0  0  0  0  0  0  0  0  0  0  0
    8.5908   -5.7425   16.4412 C   0  0  0  0  0  0  0  0  0  0  0  0
   10.5993   -4.8981   21.6068 C   0  0  0  0  0  0  0  0  0  0  0  0
   10.4258   -3.0106   23.0998 C   0  0  0  0  0  0  0  0  0  0  0  0
   10.2148   -3.4364   25.4200 C   0  0  0  0  0  0  0  0  0  0  0  0
    9.7853   -1.1840   24.4927 C   0  0  0  0  0  0  0  0  0  0  0  0
    5.0276   -8.5227   17.5352 C   0  0  0  0  0  0  0  0  0  0  0  0
    9.8187   -2.0895   25.5800 C   0  0  0  0  0  0  0  0  0  0  0  0
    5.6473   -8.7216   15.3158 C   0  0  0  0  0  0  0  0  0  0  0  0
   10.7581   -3.1233   19.4720 N   0  0  0  0  0  0  0  0  0  0  0  0
    9.9571   -4.0573   16.8866 C   0  0  0  0  0  0  0  0  0  0  0  0
    7.6213   -6.5618   16.0087 C   0  0  0  0  0  0  0  0  0  0  0  0
   10.8583   -2.6527   20.7222 C   0  0  0  0  0  0  0  0  0  0  0  0
   10.6412   -3.5089   21.7936 C   0  0  0  0  0  0  0  0  0  0  0  0
   10.4972   -3.8968   24.1589 C   0  0  0  0  0  0  0  0  0  0  0  0
    5.9260   -8.2736   16.5517 C   0  0  0  0  0  0  0  0  0  0  0  0
    3.8816   -9.1166   17.2493 C   0  0  0  0  0  0  0  0  0  0  0  0
   10.1297   -1.6575   23.2324 C   0  0  0  0  0  0  0  0  0  0  0  0
    9.4684   -1.6929   26.7263 F   0  0  0  0  0  0  0  0  0  0  0  0
    7.7963   -7.7906   17.9837 C   0  0  0  0  0  0  0  0  0  0  0  0
   10.5884   -3.0725   16.7902 O   0  0  0  0  0  0  0  0  0  0  0  0
   10.4323   -5.3494   20.3516 C   0  0  0  0  0  0  0  0  0  0  0  0
    7.1156   -7.5454   16.8218 C   0  0  0  0  0  0  0  0  0  0  0  0
   10.3885   -4.4388   19.2773 C   0  0  0  0  0  0  0  0  0  0  0  0
    4.5160   -9.3822   15.0841 C   0  0  0  0  0  0  0  0  0  0  0  0
  1  3  4  0
  1 24  4  0
  2  6  4  0
  2 15  4  0
  3  5  4  0
  3  6  4  0
  4 21  4  0
  4 29  4  0
  5 15  4  0
  5 28  1  0
  6 16  4  0
  7 18  4  0
  7 26  4  0
  8 18  1  0
  8 19  4  0
  8 22  4  0
  9 12  4  0
  9 19  4  0
 10 12  4  0
 10 22  4  0
 11 20  4  0
 11 21  4  0
 12 23  1  0
 13 20  4  0
 13 29  4  0
 14 17  4  0
 14 28  4  0
 15 25  2  0
 16 27  4  0
 17 18  4  0
 20 27  1  0
 24 27  4  0
 26 28  4  0
M  END
$$$$

 Created by Python create_sdf_string function

 29 33  0  0  0  0  0  0  0  0999 V2000
    8.8270   -7.0288   18.4251 C   0  0  0  0  0  0  0  0  0  0  0  0
    9.1576   -4.6236   15.8860 O   0  0  0  0  0  0  0  0  0  0  0  0
    9.1509   -5.9108   17.7177 C   0  0  0  0  0  0  0  0  0  0  0  0
    3.6373   -9.5349   16.0582 N   0  0  0  0  0  0  0  0  0  0  0  0
    9.9275   -4.8001   18.0438 N   0  0  0  0  0  0  0  0  0  0  0  0
    8.5908   -5.7425   16.4412 C   0  0  0  0  0  0  0  0  0  0  0  0
   10.5993   -4.8981   21.6068 C   0  0  0  0  0  0  0  0  0  0  0  0
   10.4258   -3.0106   23.0998 C   0  0  0  0  0  0  0  0  0  0  0  0
   10.2148   -3.4364   25.4200 C   0  0  0  0  0  0  0  0  0  0  0  0
    9.7853   -1.1840   24.4927 C   0  0  0  0  0  0  0  0  0  0  0  0
    5.0276   -8.5227   17.5352 C   0  0  0  0  0  0  0  0  0  0  0  0
    9.8187   -2.0895   25.5800 C   0  0  0  0  0  0  0  0  0  0  0  0
    5.6473   -8.7216   15.3158 C   0  0  0  0  0  0  0  0  0  0  0  0
   10.7581   -3.1233   19.4720 N   0  0  0  0  0  0  0  0  0  0  0  0
    9.9571   -4.0573   16.8866 C   0  0  0  0  0  0  0  0  0  0  0  0
    7.6213   -6.5618   16.0087 C   0  0  0  0  0  0  0  0  0  0  0  0
   10.8583   -2.6527   20.7222 C   0  0  0  0  0  0  0  0  0  0  0  0
   10.6412   -3.5089   21.7936 C   0  0  0  0  0  0  0  0  0  0  0  0
   10.4972   -3.8968   24.1589 C   0  0  0  0  0  0  0  0  0  0  0  0
    5.9260   -8.2736   16.5517 C   0  0  0  0  0  0  0  0  0  0  0  0
    3.8816   -9.1166   17.2493 C   0  0  0  0  0  0  0  0  0  0  0  0
   10.1297   -1.6575   23.2324 C   0  0  0  0  0  0  0  0  0  0  0  0
    9.4684   -1.6929   26.7263 F   0  0  0  0  0  0  0  0  0  0  0  0
    7.7963   -7.7906   17.9837 C   0  0  0  0  0  0  0  0  0  0  0  0
   10.5884   -3.0725   16.7902 O   0  0  0  0  0  0  0  0  0  0  0  0
   10.4323   -5.3494   20.3516 C   0  0  0  0  0  0  0  0  0  0  0  0
    7.1156   -7.5454   16.8218 C   0  0  0  0  0  0  0  0  0  0  0  0
   10.3885   -4.4388   19.2773 C   0  0  0  0  0  0  0  0  0  0  0  0
    4.5160   -9.3822   15.0841 C   0  0  0  0  0  0  0  0  0  0  0  0
  1  3  4  0
  1 24  4  0
  2  6  4  0
  2 15  4  0
  3  5  4  0
  3  6  4  0
  4 21  4  0
  4 29  4  0
  5 15  4  0
  5 28  1  0
  6 16  4  0
  7 18  4  0
  7 26  4  0
  8 18  1  0
  8 19  4  0
  8 22  4  0
  9 12  4  0
  9 19  4  0
 10 12  4  0
 10 22  4  0
 11 20  4  0
 11 21  4  0
 12 23  1  0
 13 20  4  0
 13 29  4  0
 14 17  4  0
 14 28  4  0
 15 25  2  0
 16 27  4  0
 17 18  4  0
 20 27  1  0
 24 27  4  0
 26 28  4  0
M  END
$$$$

 Created by Python create_sdf_string function

 29 33  0  0  0  0  0  0  0  0999 V2000
    8.8270   -7.0288   18.4251 C   0  0  0  0  0  0  0  0  0  0  0  0
    9.1576   -4.6236   15.8860 O   0  0  0  0  0  0  0  0  0  0  0  0
    9.1509   -5.9108   17.7177 C   0  0  0  0  0  0  0  0  0  0  0  0
    3.6373   -9.5349   16.0582 N   0  0  0  0  0  0  0  0  0  0  0  0
    9.9275   -4.8001   18.0438 N   0  0  0  0  0  0  0  0  0  0  0  0
    8.5908   -5.7425   16.4412 C   0  0  0  0  0  0  0  0  0  0  0  0
   10.5993   -4.8981   21.6068 C   0  0  0  0  0  0  0  0  0  0  0  0
   10.4258   -3.0106   23.0998 C   0  0  0  0  0  0  0  0  0  0  0  0
   10.2148   -3.4364   25.4200 C   0  0  0  0  0  0  0  0  0  0  0  0
    9.7853   -1.1840   24.4927 C   0  0  0  0  0  0  0  0  0  0  0  0
    5.0276   -8.5227   17.5352 C   0  0  0  0  0  0  0  0  0  0  0  0
    9.8187   -2.0895   25.5800 C   0  0  0  0  0  0  0  0  0  0  0  0
    5.6473   -8.7216   15.3158 C   0  0  0  0  0  0  0  0  0  0  0  0
   10.7581   -3.1233   19.4720 N   0  0  0  0  0  0  0  0  0  0  0  0
    9.9571   -4.0573   16.8866 C   0  0  0  0  0  0  0  0  0  0  0  0
    7.6213   -6.5618   16.0087 C   0  0  0  0  0  0  0  0  0  0  0  0
   10.8583   -2.6527   20.7222 C   0  0  0  0  0  0  0  0  0  0  0  0
   10.6412   -3.5089   21.7936 C   0  0  0  0  0  0  0  0  0  0  0  0
   10.4972   -3.8968   24.1589 C   0  0  0  0  0  0  0  0  0  0  0  0
    5.9260   -8.2736   16.5517 C   0  0  0  0  0  0  0  0  0  0  0  0
    3.8816   -9.1166   17.2493 C   0  0  0  0  0  0  0  0  0  0  0  0
   10.1297   -1.6575   23.2324 C   0  0  0  0  0  0  0  0  0  0  0  0
    9.4684   -1.6929   26.7263 F   0  0  0  0  0  0  0  0  0  0  0  0
    7.7963   -7.7906   17.9837 C   0  0  0  0  0  0  0  0  0  0  0  0
   10.5884   -3.0725   16.7902 O   0  0  0  0  0  0  0  0  0  0  0  0
   10.4323   -5.3494   20.3516 C   0  0  0  0  0  0  0  0  0  0  0  0
    7.1156   -7.5454   16.8218 C   0  0  0  0  0  0  0  0  0  0  0  0
   10.3885   -4.4388   19.2773 C   0  0  0  0  0  0  0  0  0  0  0  0
    4.5160   -9.3822   15.0841 C   0  0  0  0  0  0  0  0  0  0  0  0
  1  3  4  0
  1 24  4  0
  2  6  4  0
  2 15  4  0
  3  5  4  0
  3  6  4  0
  4 21  4  0
  4 29  4  0
  5 15  4  0
  5 28  1  0
  6 16  4  0
  7 18  4  0
  7 26  4  0
  8 18  1  0
  8 19  4  0
  8 22  4  0
  9 12  4  0
  9 19  4  0
 10 12  4  0
 10 22  4  0
 11 20  4  0
 11 21  4  0
 12 23  1  0
 13 20  4  0
 13 29  4  0
 14 17  4  0
 14 28  4  0
 15 25  2  0
 16 27  4  0
 17 18  4  0
 20 27  1  0
 24 27  4  0
 26 28  4  0
M  END
$$$$

 Created by Python create_sdf_string function

 29 33  0  0  0  0  0  0  0  0999 V2000
    8.8270   -7.0288   18.4251 C   0  0  0  0  0  0  0  0  0  0  0  0
    9.1576   -4.6236   15.8860 O   0  0  0  0  0  0  0  0  0  0  0  0
    9.1509   -5.9108   17.7177 C   0  0  0  0  0  0  0  0  0  0  0  0
    3.6373   -9.5349   16.0582 N   0  0  0  0  0  0  0  0  0  0  0  0
    9.9275   -4.8001   18.0438 N   0  0  0  0  0  0  0  0  0  0  0  0
    8.5908   -5.7425   16.4412 C   0  0  0  0  0  0  0  0  0  0  0  0
   10.5993   -4.8981   21.6068 C   0  0  0  0  0  0  0  0  0  0  0  0
   10.4258   -3.0106   23.0998 C   0  0  0  0  0  0  0  0  0  0  0  0
   10.2148   -3.4364   25.4200 C   0  0  0  0  0  0  0  0  0  0  0  0
    9.7853   -1.1840   24.4927 C   0  0  0  0  0  0  0  0  0  0  0  0
    5.0276   -8.5227   17.5352 C   0  0  0  0  0  0  0  0  0  0  0  0
    9.8187   -2.0895   25.5800 C   0  0  0  0  0  0  0  0  0  0  0  0
    5.6473   -8.7216   15.3158 C   0  0  0  0  0  0  0  0  0  0  0  0
   10.7581   -3.1233   19.4720 N   0  0  0  0  0  0  0  0  0  0  0  0
    9.9571   -4.0573   16.8866 C   0  0  0  0  0  0  0  0  0  0  0  0
    7.6213   -6.5618   16.0087 C   0  0  0  0  0  0  0  0  0  0  0  0
   10.8583   -2.6527   20.7222 C   0  0  0  0  0  0  0  0  0  0  0  0
   10.6412   -3.5089   21.7936 C   0  0  0  0  0  0  0  0  0  0  0  0
   10.4972   -3.8968   24.1589 C   0  0  0  0  0  0  0  0  0  0  0  0
    5.9260   -8.2736   16.5517 C   0  0  0  0  0  0  0  0  0  0  0  0
    3.8816   -9.1166   17.2493 C   0  0  0  0  0  0  0  0  0  0  0  0
   10.1297   -1.6575   23.2324 C   0  0  0  0  0  0  0  0  0  0  0  0
    9.4684   -1.6929   26.7263 F   0  0  0  0  0  0  0  0  0  0  0  0
    7.7963   -7.7906   17.9837 C   0  0  0  0  0  0  0  0  0  0  0  0
   10.5884   -3.0725   16.7902 O   0  0  0  0  0  0  0  0  0  0  0  0
   10.4323   -5.3494   20.3516 C   0  0  0  0  0  0  0  0  0  0  0  0
    7.1156   -7.5454   16.8218 C   0  0  0  0  0  0  0  0  0  0  0  0
   10.3885   -4.4388   19.2773 C   0  0  0  0  0  0  0  0  0  0  0  0
    4.5160   -9.3822   15.0841 C   0  0  0  0  0  0  0  0  0  0  0  0
  1  3  4  0
  1 24  4  0
  2  6  4  0
  2 15  4  0
  3  5  4  0
  3  6  4  0
  4 21  4  0
  4 29  4  0
  5 15  4  0
  5 28  1  0
  6 16  4  0
  7 18  4  0
  7 26  4  0
  8 18  1  0
  8 19  4  0
  8 22  4  0
  9 12  4  0
  9 19  4  0
 10 12  4  0
 10 22  4  0
 11 20  4  0
 11 21  4  0
 12 23  1  0
 13 20  4  0
 13 29  4  0
 14 17  4  0
 14 28  4  0
 15 25  2  0
 16 27  4  0
 17 18  4  0
 20 27  1  0
 24 27  4  0
 26 28  4  0
M  END
$$$$

 Created by Python create_sdf_string function

 29 33  0  0  0  0  0  0  0  0999 V2000
    8.8270   -7.0288   18.4251 C   0  0  0  0  0  0  0  0  0  0  0  0
    9.1576   -4.6236   15.8860 O   0  0  0  0  0  0  0  0  0  0  0  0
    9.1509   -5.9108   17.7177 C   0  0  0  0  0  0  0  0  0  0  0  0
    3.6373   -9.5349   16.0582 N   0  0  0  0  0  0  0  0  0  0  0  0
    9.9275   -4.8001   18.0438 N   0  0  0  0  0  0  0  0  0  0  0  0
    8.5908   -5.7425   16.4412 C   0  0  0  0  0  0  0  0  0  0  0  0
   10.5993   -4.8981   21.6068 C   0  0  0  0  0  0  0  0  0  0  0  0
   10.4258   -3.0106   23.0998 C   0  0  0  0  0  0  0  0  0  0  0  0
   10.2148   -3.4364   25.4200 C   0  0  0  0  0  0  0  0  0  0  0  0
    9.7853   -1.1840   24.4927 C   0  0  0  0  0  0  0  0  0  0  0  0
    5.0276   -8.5227   17.5352 C   0  0  0  0  0  0  0  0  0  0  0  0
    9.8187   -2.0895   25.5800 C   0  0  0  0  0  0  0  0  0  0  0  0
    5.6473   -8.7216   15.3158 C   0  0  0  0  0  0  0  0  0  0  0  0
   10.7581   -3.1233   19.4720 N   0  0  0  0  0  0  0  0  0  0  0  0
    9.9571   -4.0573   16.8866 C   0  0  0  0  0  0  0  0  0  0  0  0
    7.6213   -6.5618   16.0087 C   0  0  0  0  0  0  0  0  0  0  0  0
   10.8583   -2.6527   20.7222 C   0  0  0  0  0  0  0  0  0  0  0  0
   10.6412   -3.5089   21.7936 C   0  0  0  0  0  0  0  0  0  0  0  0
   10.4972   -3.8968   24.1589 C   0  0  0  0  0  0  0  0  0  0  0  0
    5.9260   -8.2736   16.5517 C   0  0  0  0  0  0  0  0  0  0  0  0
    3.8816   -9.1166   17.2493 C   0  0  0  0  0  0  0  0  0  0  0  0
   10.1297   -1.6575   23.2324 C   0  0  0  0  0  0  0  0  0  0  0  0
    9.4684   -1.6929   26.7263 F   0  0  0  0  0  0  0  0  0  0  0  0
    7.7963   -7.7906   17.9837 C   0  0  0  0  0  0  0  0  0  0  0  0
   10.5884   -3.0725   16.7902 O   0  0  0  0  0  0  0  0  0  0  0  0
   10.4323   -5.3494   20.3516 C   0  0  0  0  0  0  0  0  0  0  0  0
    7.1156   -7.5454   16.8218 C   0  0  0  0  0  0  0  0  0  0  0  0
   10.3885   -4.4388   19.2773 C   0  0  0  0  0  0  0  0  0  0  0  0
    4.5160   -9.3822   15.0841 C   0  0  0  0  0  0  0  0  0  0  0  0
  1  3  4  0
  1 24  4  0
  2  6  4  0
  2 15  4  0
  3  5  4  0
  3  6  4  0
  4 21  4  0
  4 29  4  0
  5 15  4  0
  5 28  1  0
  6 16  4  0
  7 18  4  0
  7 26  4  0
  8 18  1  0
  8 19  4  0
  8 22  4  0
  9 12  4  0
  9 19  4  0
 10 12  4  0
 10 22  4  0
 11 20  4  0
 11 21  4  0
 12 23  1  0
 13 20  4  0
 13 29  4  0
 14 17  4  0
 14 28  4  0
 15 25  2  0
 16 27  4  0
 17 18  4  0
 20 27  1  0
 24 27  4  0
 26 28  4  0
M  END
$$$$

 Created by Python create_sdf_string function

 29 33  0  0  0  0  0  0  0  0999 V2000
    8.8270   -7.0288   18.4251 C   0  0  0  0  0  0  0  0  0  0  0  0
    9.1576   -4.6236   15.8860 O   0  0  0  0  0  0  0  0  0  0  0  0
    9.1509   -5.9108   17.7177 C   0  0  0  0  0  0  0  0  0  0  0  0
    3.6373   -9.5349   16.0582 N   0  0  0  0  0  0  0  0  0  0  0  0
    9.9275   -4.8001   18.0438 N   0  0  0  0  0  0  0  0  0  0  0  0
    8.5908   -5.7425   16.4412 C   0  0  0  0  0  0  0  0  0  0  0  0
   10.5993   -4.8981   21.6068 C   0  0  0  0  0  0  0  0  0  0  0  0
   10.4258   -3.0106   23.0998 C   0  0  0  0  0  0  0  0  0  0  0  0
   10.2148   -3.4364   25.4200 C   0  0  0  0  0  0  0  0  0  0  0  0
    9.7853   -1.1840   24.4927 C   0  0  0  0  0  0  0  0  0  0  0  0
    5.0276   -8.5227   17.5352 C   0  0  0  0  0  0  0  0  0  0  0  0
    9.8187   -2.0895   25.5800 C   0  0  0  0  0  0  0  0  0  0  0  0
    5.6473   -8.7216   15.3158 C   0  0  0  0  0  0  0  0  0  0  0  0
   10.7581   -3.1233   19.4720 N   0  0  0  0  0  0  0  0  0  0  0  0
    9.9571   -4.0573   16.8866 C   0  0  0  0  0  0  0  0  0  0  0  0
    7.6213   -6.5618   16.0087 C   0  0  0  0  0  0  0  0  0  0  0  0
   10.8583   -2.6527   20.7222 C   0  0  0  0  0  0  0  0  0  0  0  0
   10.6412   -3.5089   21.7936 C   0  0  0  0  0  0  0  0  0  0  0  0
   10.4972   -3.8968   24.1589 C   0  0  0  0  0  0  0  0  0  0  0  0
    5.9260   -8.2736   16.5517 C   0  0  0  0  0  0  0  0  0  0  0  0
    3.8816   -9.1166   17.2493 C   0  0  0  0  0  0  0  0  0  0  0  0
   10.1297   -1.6575   23.2324 C   0  0  0  0  0  0  0  0  0  0  0  0
    9.4684   -1.6929   26.7263 F   0  0  0  0  0  0  0  0  0  0  0  0
    7.7963   -7.7906   17.9837 C   0  0  0  0  0  0  0  0  0  0  0  0
   10.5884   -3.0725   16.7902 O   0  0  0  0  0  0  0  0  0  0  0  0
   10.4323   -5.3494   20.3516 C   0  0  0  0  0  0  0  0  0  0  0  0
    7.1156   -7.5454   16.8218 C   0  0  0  0  0  0  0  0  0  0  0  0
   10.3885   -4.4388   19.2773 C   0  0  0  0  0  0  0  0  0  0  0  0
    4.5160   -9.3822   15.0841 C   0  0  0  0  0  0  0  0  0  0  0  0
  1  3  4  0
  1 24  4  0
  2  6  4  0
  2 15  4  0
  3  5  4  0
  3  6  4  0
  4 21  4  0
  4 29  4  0
  5 15  4  0
  5 28  1  0
  6 16  4  0
  7 18  4  0
  7 26  4  0
  8 18  1  0
  8 19  4  0
  8 22  4  0
  9 12  4  0
  9 19  4  0
 10 12  4  0
 10 22  4  0
 11 20  4  0
 11 21  4  0
 12 23  1  0
 13 20  4  0
 13 29  4  0
 14 17  4  0
 14 28  4  0
 15 25  2  0
 16 27  4  0
 17 18  4  0
 20 27  1  0
 24 27  4  0
 26 28  4  0
M  END
$$$$

 Created by Python create_sdf_string function

 29 33  0  0  0  0  0  0  0  0999 V2000
    8.8270   -7.0288   18.4251 C   0  0  0  0  0  0  0  0  0  0  0  0
    9.1576   -4.6236   15.8860 O   0  0  0  0  0  0  0  0  0  0  0  0
    9.1509   -5.9108   17.7177 C   0  0  0  0  0  0  0  0  0  0  0  0
    3.6373   -9.5349   16.0582 N   0  0  0  0  0  0  0  0  0  0  0  0
    9.9275   -4.8001   18.0438 N   0  0  0  0  0  0  0  0  0  0  0  0
    8.5908   -5.7425   16.4412 C   0  0  0  0  0  0  0  0  0  0  0  0
   10.5993   -4.8981   21.6068 C   0  0  0  0  0  0  0  0  0  0  0  0
   10.4258   -3.0106   23.0998 C   0  0  0  0  0  0  0  0  0  0  0  0
   10.2148   -3.4364   25.4200 C   0  0  0  0  0  0  0  0  0  0  0  0
    9.7853   -1.1840   24.4927 C   0  0  0  0  0  0  0  0  0  0  0  0
    5.0276   -8.5227   17.5352 C   0  0  0  0  0  0  0  0  0  0  0  0
    9.8187   -2.0895   25.5800 C   0  0  0  0  0  0  0  0  0  0  0  0
    5.6473   -8.7216   15.3158 C   0  0  0  0  0  0  0  0  0  0  0  0
   10.7581   -3.1233   19.4720 N   0  0  0  0  0  0  0  0  0  0  0  0
    9.9571   -4.0573   16.8866 C   0  0  0  0  0  0  0  0  0  0  0  0
    7.6213   -6.5618   16.0087 C   0  0  0  0  0  0  0  0  0  0  0  0
   10.8583   -2.6527   20.7222 C   0  0  0  0  0  0  0  0  0  0  0  0
   10.6412   -3.5089   21.7936 C   0  0  0  0  0  0  0  0  0  0  0  0
   10.4972   -3.8968   24.1589 C   0  0  0  0  0  0  0  0  0  0  0  0
    5.9260   -8.2736   16.5517 C   0  0  0  0  0  0  0  0  0  0  0  0
    3.8816   -9.1166   17.2493 C   0  0  0  0  0  0  0  0  0  0  0  0
   10.1297   -1.6575   23.2324 C   0  0  0  0  0  0  0  0  0  0  0  0
    9.4684   -1.6929   26.7263 F   0  0  0  0  0  0  0  0  0  0  0  0
    7.7963   -7.7906   17.9837 C   0  0  0  0  0  0  0  0  0  0  0  0
   10.5884   -3.0725   16.7902 O   0  0  0  0  0  0  0  0  0  0  0  0
   10.4323   -5.3494   20.3516 C   0  0  0  0  0  0  0  0  0  0  0  0
    7.1156   -7.5454   16.8218 C   0  0  0  0  0  0  0  0  0  0  0  0
   10.3885   -4.4388   19.2773 C   0  0  0  0  0  0  0  0  0  0  0  0
    4.5160   -9.3822   15.0841 C   0  0  0  0  0  0  0  0  0  0  0  0
  1  3  4  0
  1 24  4  0
  2  6  4  0
  2 15  4  0
  3  5  4  0
  3  6  4  0
  4 21  4  0
  4 29  4  0
  5 15  4  0
  5 28  1  0
  6 16  4  0
  7 18  4  0
  7 26  4  0
  8 18  1  0
  8 19  4  0
  8 22  4  0
  9 12  4  0
  9 19  4  0
 10 12  4  0
 10 22  4  0
 11 20  4  0
 11 21  4  0
 12 23  1  0
 13 20  4  0
 13 29  4  0
 14 17  4  0
 14 28  4  0
 15 25  2  0
 16 27  4  0
 17 18  4  0
 20 27  1  0
 24 27  4  0
 26 28  4  0
M  END
$$$$

 Created by Python create_sdf_string function

 29 33  0  0  0  0  0  0  0  0999 V2000
    8.8270   -7.0288   18.4251 C   0  0  0  0  0  0  0  0  0  0  0  0
    9.1576   -4.6236   15.8860 O   0  0  0  0  0  0  0  0  0  0  0  0
    9.1509   -5.9108   17.7177 C   0  0  0  0  0  0  0  0  0  0  0  0
    3.6373   -9.5349   16.0582 N   0  0  0  0  0  0  0  0  0  0  0  0
    9.9275   -4.8001   18.0438 N   0  0  0  0  0  0  0  0  0  0  0  0
    8.5908   -5.7425   16.4412 C   0  0  0  0  0  0  0  0  0  0  0  0
   10.5993   -4.8981   21.6068 C   0  0  0  0  0  0  0  0  0  0  0  0
   10.4258   -3.0106   23.0998 C   0  0  0  0  0  0  0  0  0  0  0  0
   10.2148   -3.4364   25.4200 C   0  0  0  0  0  0  0  0  0  0  0  0
    9.7853   -1.1840   24.4927 C   0  0  0  0  0  0  0  0  0  0  0  0
    5.0276   -8.5227   17.5352 C   0  0  0  0  0  0  0  0  0  0  0  0
    9.8187   -2.0895   25.5800 C   0  0  0  0  0  0  0  0  0  0  0  0
    5.6473   -8.7216   15.3158 C   0  0  0  0  0  0  0  0  0  0  0  0
   10.7581   -3.1233   19.4720 N   0  0  0  0  0  0  0  0  0  0  0  0
    9.9571   -4.0573   16.8866 C   0  0  0  0  0  0  0  0  0  0  0  0
    7.6213   -6.5618   16.0087 C   0  0  0  0  0  0  0  0  0  0  0  0
   10.8583   -2.6527   20.7222 C   0  0  0  0  0  0  0  0  0  0  0  0
   10.6412   -3.5089   21.7936 C   0  0  0  0  0  0  0  0  0  0  0  0
   10.4972   -3.8968   24.1589 C   0  0  0  0  0  0  0  0  0  0  0  0
    5.9260   -8.2736   16.5517 C   0  0  0  0  0  0  0  0  0  0  0  0
    3.8816   -9.1166   17.2493 C   0  0  0  0  0  0  0  0  0  0  0  0
   10.1297   -1.6575   23.2324 C   0  0  0  0  0  0  0  0  0  0  0  0
    9.4684   -1.6929   26.7263 F   0  0  0  0  0  0  0  0  0  0  0  0
    7.7963   -7.7906   17.9837 C   0  0  0  0  0  0  0  0  0  0  0  0
   10.5884   -3.0725   16.7902 O   0  0  0  0  0  0  0  0  0  0  0  0
   10.4323   -5.3494   20.3516 C   0  0  0  0  0  0  0  0  0  0  0  0
    7.1156   -7.5454   16.8218 C   0  0  0  0  0  0  0  0  0  0  0  0
   10.3885   -4.4388   19.2773 C   0  0  0  0  0  0  0  0  0  0  0  0
    4.5160   -9.3822   15.0841 C   0  0  0  0  0  0  0  0  0  0  0  0
  1  3  4  0
  1 24  4  0
  2  6  4  0
  2 15  4  0
  3  5  4  0
  3  6  4  0
  4 21  4  0
  4 29  4  0
  5 15  4  0
  5 28  1  0
  6 16  4  0
  7 18  4  0
  7 26  4  0
  8 18  1  0
  8 19  4  0
  8 22  4  0
  9 12  4  0
  9 19  4  0
 10 12  4  0
 10 22  4  0
 11 20  4  0
 11 21  4  0
 12 23  1  0
 13 20  4  0
 13 29  4  0
 14 17  4  0
 14 28  4  0
 15 25  2  0
 16 27  4  0
 17 18  4  0
 20 27  1  0
 24 27  4  0
 26 28  4  0
M  END
$$$$

 Created by Python create_sdf_string function

 29 33  0  0  0  0  0  0  0  0999 V2000
    8.8270   -7.0288   18.4251 C   0  0  0  0  0  0  0  0  0  0  0  0
    9.1576   -4.6236   15.8860 O   0  0  0  0  0  0  0  0  0  0  0  0
    9.1509   -5.9108   17.7177 C   0  0  0  0  0  0  0  0  0  0  0  0
    3.6373   -9.5349   16.0582 N   0  0  0  0  0  0  0  0  0  0  0  0
    9.9275   -4.8001   18.0438 N   0  0  0  0  0  0  0  0  0  0  0  0
    8.5908   -5.7425   16.4412 C   0  0  0  0  0  0  0  0  0  0  0  0
   10.5993   -4.8981   21.6068 C   0  0  0  0  0  0  0  0  0  0  0  0
   10.4258   -3.0106   23.0998 C   0  0  0  0  0  0  0  0  0  0  0  0
   10.2148   -3.4364   25.4200 C   0  0  0  0  0  0  0  0  0  0  0  0
    9.7853   -1.1840   24.4927 C   0  0  0  0  0  0  0  0  0  0  0  0
    5.0276   -8.5227   17.5352 C   0  0  0  0  0  0  0  0  0  0  0  0
    9.8187   -2.0895   25.5800 C   0  0  0  0  0  0  0  0  0  0  0  0
    5.6473   -8.7216   15.3158 C   0  0  0  0  0  0  0  0  0  0  0  0
   10.7581   -3.1233   19.4720 N   0  0  0  0  0  0  0  0  0  0  0  0
    9.9571   -4.0573   16.8866 C   0  0  0  0  0  0  0  0  0  0  0  0
    7.6213   -6.5618   16.0087 C   0  0  0  0  0  0  0  0  0  0  0  0
   10.8583   -2.6527   20.7222 C   0  0  0  0  0  0  0  0  0  0  0  0
   10.6412   -3.5089   21.7936 C   0  0  0  0  0  0  0  0  0  0  0  0
   10.4972   -3.8968   24.1589 C   0  0  0  0  0  0  0  0  0  0  0  0
    5.9260   -8.2736   16.5517 C   0  0  0  0  0  0  0  0  0  0  0  0
    3.8816   -9.1166   17.2493 C   0  0  0  0  0  0  0  0  0  0  0  0
   10.1297   -1.6575   23.2324 C   0  0  0  0  0  0  0  0  0  0  0  0
    9.4684   -1.6929   26.7263 F   0  0  0  0  0  0  0  0  0  0  0  0
    7.7963   -7.7906   17.9837 C   0  0  0  0  0  0  0  0  0  0  0  0
   10.5884   -3.0725   16.7902 O   0  0  0  0  0  0  0  0  0  0  0  0
   10.4323   -5.3494   20.3516 C   0  0  0  0  0  0  0  0  0  0  0  0
    7.1156   -7.5454   16.8218 C   0  0  0  0  0  0  0  0  0  0  0  0
   10.3885   -4.4388   19.2773 C   0  0  0  0  0  0  0  0  0  0  0  0
    4.5160   -9.3822   15.0841 C   0  0  0  0  0  0  0  0  0  0  0  0
  1  3  4  0
  1 24  4  0
  2  6  4  0
  2 15  4  0
  3  5  4  0
  3  6  4  0
  4 21  4  0
  4 29  4  0
  5 15  4  0
  5 28  1  0
  6 16  4  0
  7 18  4  0
  7 26  4  0
  8 18  1  0
  8 19  4  0
  8 22  4  0
  9 12  4  0
  9 19  4  0
 10 12  4  0
 10 22  4  0
 11 20  4  0
 11 21  4  0
 12 23  1  0
 13 20  4  0
 13 29  4  0
 14 17  4  0
 14 28  4  0
 15 25  2  0
 16 27  4  0
 17 18  4  0
 20 27  1  0
 24 27  4  0
 26 28  4  0
M  END
$$$$

 Created by Python create_sdf_string function

 29 33  0  0  0  0  0  0  0  0999 V2000
    8.8270   -7.0288   18.4251 C   0  0  0  0  0  0  0  0  0  0  0  0
    9.1576   -4.6236   15.8860 O   0  0  0  0  0  0  0  0  0  0  0  0
    9.1509   -5.9108   17.7177 C   0  0  0  0  0  0  0  0  0  0  0  0
    3.6373   -9.5349   16.0582 N   0  0  0  0  0  0  0  0  0  0  0  0
    9.9275   -4.8001   18.0438 N   0  0  0  0  0  0  0  0  0  0  0  0
    8.5908   -5.7425   16.4412 C   0  0  0  0  0  0  0  0  0  0  0  0
   10.5993   -4.8981   21.6068 C   0  0  0  0  0  0  0  0  0  0  0  0
   10.4258   -3.0106   23.0998 C   0  0  0  0  0  0  0  0  0  0  0  0
   10.2148   -3.4364   25.4200 C   0  0  0  0  0  0  0  0  0  0  0  0
    9.7853   -1.1840   24.4927 C   0  0  0  0  0  0  0  0  0  0  0  0
    5.0276   -8.5227   17.5352 C   0  0  0  0  0  0  0  0  0  0  0  0
    9.8187   -2.0895   25.5800 C   0  0  0  0  0  0  0  0  0  0  0  0
    5.6473   -8.7216   15.3158 C   0  0  0  0  0  0  0  0  0  0  0  0
   10.7581   -3.1233   19.4720 N   0  0  0  0  0  0  0  0  0  0  0  0
    9.9571   -4.0573   16.8866 C   0  0  0  0  0  0  0  0  0  0  0  0
    7.6213   -6.5618   16.0087 C   0  0  0  0  0  0  0  0  0  0  0  0
   10.8583   -2.6527   20.7222 C   0  0  0  0  0  0  0  0  0  0  0  0
   10.6412   -3.5089   21.7936 C   0  0  0  0  0  0  0  0  0  0  0  0
   10.4972   -3.8968   24.1589 C   0  0  0  0  0  0  0  0  0  0  0  0
    5.9260   -8.2736   16.5517 C   0  0  0  0  0  0  0  0  0  0  0  0
    3.8816   -9.1166   17.2493 C   0  0  0  0  0  0  0  0  0  0  0  0
   10.1297   -1.6575   23.2324 C   0  0  0  0  0  0  0  0  0  0  0  0
    9.4684   -1.6929   26.7263 F   0  0  0  0  0  0  0  0  0  0  0  0
    7.7963   -7.7906   17.9837 C   0  0  0  0  0  0  0  0  0  0  0  0
   10.5884   -3.0725   16.7902 O   0  0  0  0  0  0  0  0  0  0  0  0
   10.4323   -5.3494   20.3516 C   0  0  0  0  0  0  0  0  0  0  0  0
    7.1156   -7.5454   16.8218 C   0  0  0  0  0  0  0  0  0  0  0  0
   10.3885   -4.4388   19.2773 C   0  0  0  0  0  0  0  0  0  0  0  0
    4.5160   -9.3822   15.0841 C   0  0  0  0  0  0  0  0  0  0  0  0
  1  3  4  0
  1 24  4  0
  2  6  4  0
  2 15  4  0
  3  5  4  0
  3  6  4  0
  4 21  4  0
  4 29  4  0
  5 15  4  0
  5 28  1  0
  6 16  4  0
  7 18  4  0
  7 26  4  0
  8 18  1  0
  8 19  4  0
  8 22  4  0
  9 12  4  0
  9 19  4  0
 10 12  4  0
 10 22  4  0
 11 20  4  0
 11 21  4  0
 12 23  1  0
 13 20  4  0
 13 29  4  0
 14 17  4  0
 14 28  4  0
 15 25  2  0
 16 27  4  0
 17 18  4  0
 20 27  1  0
 24 27  4  0
 26 28  4  0
M  END
$$$$

 Created by Python create_sdf_string function

 29 33  0  0  0  0  0  0  0  0999 V2000
    8.8270   -7.0288   18.4251 C   0  0  0  0  0  0  0  0  0  0  0  0
    9.1576   -4.6236   15.8860 O   0  0  0  0  0  0  0  0  0  0  0  0
    9.1509   -5.9108   17.7177 C   0  0  0  0  0  0  0  0  0  0  0  0
    3.6373   -9.5349   16.0582 N   0  0  0  0  0  0  0  0  0  0  0  0
    9.9275   -4.8001   18.0438 N   0  0  0  0  0  0  0  0  0  0  0  0
    8.5908   -5.7425   16.4412 C   0  0  0  0  0  0  0  0  0  0  0  0
   10.5993   -4.8981   21.6068 C   0  0  0  0  0  0  0  0  0  0  0  0
   10.4258   -3.0106   23.0998 C   0  0  0  0  0  0  0  0  0  0  0  0
   10.2148   -3.4364   25.4200 C   0  0  0  0  0  0  0  0  0  0  0  0
    9.7853   -1.1840   24.4927 C   0  0  0  0  0  0  0  0  0  0  0  0
    5.0276   -8.5227   17.5352 C   0  0  0  0  0  0  0  0  0  0  0  0
    9.8187   -2.0895   25.5800 C   0  0  0  0  0  0  0  0  0  0  0  0
    5.6473   -8.7216   15.3158 C   0  0  0  0  0  0  0  0  0  0  0  0
   10.7581   -3.1233   19.4720 N   0  0  0  0  0  0  0  0  0  0  0  0
    9.9571   -4.0573   16.8866 C   0  0  0  0  0  0  0  0  0  0  0  0
    7.6213   -6.5618   16.0087 C   0  0  0  0  0  0  0  0  0  0  0  0
   10.8583   -2.6527   20.7222 C   0  0  0  0  0  0  0  0  0  0  0  0
   10.6412   -3.5089   21.7936 C   0  0  0  0  0  0  0  0  0  0  0  0
   10.4972   -3.8968   24.1589 C   0  0  0  0  0  0  0  0  0  0  0  0
    5.9260   -8.2736   16.5517 C   0  0  0  0  0  0  0  0  0  0  0  0
    3.8816   -9.1166   17.2493 C   0  0  0  0  0  0  0  0  0  0  0  0
   10.1297   -1.6575   23.2324 C   0  0  0  0  0  0  0  0  0  0  0  0
    9.4684   -1.6929   26.7263 F   0  0  0  0  0  0  0  0  0  0  0  0
    7.7963   -7.7906   17.9837 C   0  0  0  0  0  0  0  0  0  0  0  0
   10.5884   -3.0725   16.7902 O   0  0  0  0  0  0  0  0  0  0  0  0
   10.4323   -5.3494   20.3516 C   0  0  0  0  0  0  0  0  0  0  0  0
    7.1156   -7.5454   16.8218 C   0  0  0  0  0  0  0  0  0  0  0  0
   10.3885   -4.4388   19.2773 C   0  0  0  0  0  0  0  0  0  0  0  0
    4.5160   -9.3822   15.0841 C   0  0  0  0  0  0  0  0  0  0  0  0
  1  3  4  0
  1 24  4  0
  2  6  4  0
  2 15  4  0
  3  5  4  0
  3  6  4  0
  4 21  4  0
  4 29  4  0
  5 15  4  0
  5 28  1  0
  6 16  4  0
  7 18  4  0
  7 26  4  0
  8 18  1  0
  8 19  4  0
  8 22  4  0
  9 12  4  0
  9 19  4  0
 10 12  4  0
 10 22  4  0
 11 20  4  0
 11 21  4  0
 12 23  1  0
 13 20  4  0
 13 29  4  0
 14 17  4  0
 14 28  4  0
 15 25  2  0
 16 27  4  0
 17 18  4  0
 20 27  1  0
 24 27  4  0
 26 28  4  0
M  END
$$$$

 Created by Python create_sdf_string function

 29 33  0  0  0  0  0  0  0  0999 V2000
    8.8270   -7.0288   18.4251 C   0  0  0  0  0  0  0  0  0  0  0  0
    9.1576   -4.6236   15.8860 O   0  0  0  0  0  0  0  0  0  0  0  0
    9.1509   -5.9108   17.7177 C   0  0  0  0  0  0  0  0  0  0  0  0
    3.6373   -9.5349   16.0582 N   0  0  0  0  0  0  0  0  0  0  0  0
    9.9275   -4.8001   18.0438 N   0  0  0  0  0  0  0  0  0  0  0  0
    8.5908   -5.7425   16.4412 C   0  0  0  0  0  0  0  0  0  0  0  0
   10.5993   -4.8981   21.6068 C   0  0  0  0  0  0  0  0  0  0  0  0
   10.4258   -3.0106   23.0998 C   0  0  0  0  0  0  0  0  0  0  0  0
   10.2148   -3.4364   25.4200 C   0  0  0  0  0  0  0  0  0  0  0  0
    9.7853   -1.1840   24.4927 C   0  0  0  0  0  0  0  0  0  0  0  0
    5.0276   -8.5227   17.5352 C   0  0  0  0  0  0  0  0  0  0  0  0
    9.8187   -2.0895   25.5800 C   0  0  0  0  0  0  0  0  0  0  0  0
    5.6473   -8.7216   15.3158 C   0  0  0  0  0  0  0  0  0  0  0  0
   10.7581   -3.1233   19.4720 N   0  0  0  0  0  0  0  0  0  0  0  0
    9.9571   -4.0573   16.8866 C   0  0  0  0  0  0  0  0  0  0  0  0
    7.6213   -6.5618   16.0087 C   0  0  0  0  0  0  0  0  0  0  0  0
   10.8583   -2.6527   20.7222 C   0  0  0  0  0  0  0  0  0  0  0  0
   10.6412   -3.5089   21.7936 C   0  0  0  0  0  0  0  0  0  0  0  0
   10.4972   -3.8968   24.1589 C   0  0  0  0  0  0  0  0  0  0  0  0
    5.9260   -8.2736   16.5517 C   0  0  0  0  0  0  0  0  0  0  0  0
    3.8816   -9.1166   17.2493 C   0  0  0  0  0  0  0  0  0  0  0  0
   10.1297   -1.6575   23.2324 C   0  0  0  0  0  0  0  0  0  0  0  0
    9.4684   -1.6929   26.7263 F   0  0  0  0  0  0  0  0  0  0  0  0
    7.7963   -7.7906   17.9837 C   0  0  0  0  0  0  0  0  0  0  0  0
   10.5884   -3.0725   16.7902 O   0  0  0  0  0  0  0  0  0  0  0  0
   10.4323   -5.3494   20.3516 C   0  0  0  0  0  0  0  0  0  0  0  0
    7.1156   -7.5454   16.8218 C   0  0  0  0  0  0  0  0  0  0  0  0
   10.3885   -4.4388   19.2773 C   0  0  0  0  0  0  0  0  0  0  0  0
    4.5160   -9.3822   15.0841 C   0  0  0  0  0  0  0  0  0  0  0  0
  1  3  4  0
  1 24  4  0
  2  6  4  0
  2 15  4  0
  3  5  4  0
  3  6  4  0
  4 21  4  0
  4 29  4  0
  5 15  4  0
  5 28  1  0
  6 16  4  0
  7 18  4  0
  7 26  4  0
  8 18  1  0
  8 19  4  0
  8 22  4  0
  9 12  4  0
  9 19  4  0
 10 12  4  0
 10 22  4  0
 11 20  4  0
 11 21  4  0
 12 23  1  0
 13 20  4  0
 13 29  4  0
 14 17  4  0
 14 28  4  0
 15 25  2  0
 16 27  4  0
 17 18  4  0
 20 27  1  0
 24 27  4  0
 26 28  4  0
M  END
$$$$

 Created by Python create_sdf_string function

 29 33  0  0  0  0  0  0  0  0999 V2000
    8.8270   -7.0288   18.4251 C   0  0  0  0  0  0  0  0  0  0  0  0
    9.1576   -4.6236   15.8860 O   0  0  0  0  0  0  0  0  0  0  0  0
    9.1509   -5.9108   17.7177 C   0  0  0  0  0  0  0  0  0  0  0  0
    3.6373   -9.5349   16.0582 N   0  0  0  0  0  0  0  0  0  0  0  0
    9.9275   -4.8001   18.0438 N   0  0  0  0  0  0  0  0  0  0  0  0
    8.5908   -5.7425   16.4412 C   0  0  0  0  0  0  0  0  0  0  0  0
   10.5993   -4.8981   21.6068 C   0  0  0  0  0  0  0  0  0  0  0  0
   10.4258   -3.0106   23.0998 C   0  0  0  0  0  0  0  0  0  0  0  0
   10.2148   -3.4364   25.4200 C   0  0  0  0  0  0  0  0  0  0  0  0
    9.7853   -1.1840   24.4927 C   0  0  0  0  0  0  0  0  0  0  0  0
    5.0276   -8.5227   17.5352 C   0  0  0  0  0  0  0  0  0  0  0  0
    9.8187   -2.0895   25.5800 C   0  0  0  0  0  0  0  0  0  0  0  0
    5.6473   -8.7216   15.3158 C   0  0  0  0  0  0  0  0  0  0  0  0
   10.7581   -3.1233   19.4720 N   0  0  0  0  0  0  0  0  0  0  0  0
    9.9571   -4.0573   16.8866 C   0  0  0  0  0  0  0  0  0  0  0  0
    7.6213   -6.5618   16.0087 C   0  0  0  0  0  0  0  0  0  0  0  0
   10.8583   -2.6527   20.7222 C   0  0  0  0  0  0  0  0  0  0  0  0
   10.6412   -3.5089   21.7936 C   0  0  0  0  0  0  0  0  0  0  0  0
   10.4972   -3.8968   24.1589 C   0  0  0  0  0  0  0  0  0  0  0  0
    5.9260   -8.2736   16.5517 C   0  0  0  0  0  0  0  0  0  0  0  0
    3.8816   -9.1166   17.2493 C   0  0  0  0  0  0  0  0  0  0  0  0
   10.1297   -1.6575   23.2324 C   0  0  0  0  0  0  0  0  0  0  0  0
    9.4684   -1.6929   26.7263 F   0  0  0  0  0  0  0  0  0  0  0  0
    7.7963   -7.7906   17.9837 C   0  0  0  0  0  0  0  0  0  0  0  0
   10.5884   -3.0725   16.7902 O   0  0  0  0  0  0  0  0  0  0  0  0
   10.4323   -5.3494   20.3516 C   0  0  0  0  0  0  0  0  0  0  0  0
    7.1156   -7.5454   16.8218 C   0  0  0  0  0  0  0  0  0  0  0  0
   10.3885   -4.4388   19.2773 C   0  0  0  0  0  0  0  0  0  0  0  0
    4.5160   -9.3822   15.0841 C   0  0  0  0  0  0  0  0  0  0  0  0
  1  3  4  0
  1 24  4  0
  2  6  4  0
  2 15  4  0
  3  5  4  0
  3  6  4  0
  4 21  4  0
  4 29  4  0
  5 15  4  0
  5 28  1  0
  6 16  4  0
  7 18  4  0
  7 26  4  0
  8 18  1  0
  8 19  4  0
  8 22  4  0
  9 12  4  0
  9 19  4  0
 10 12  4  0
 10 22  4  0
 11 20  4  0
 11 21  4  0
 12 23  1  0
 13 20  4  0
 13 29  4  0
 14 17  4  0
 14 28  4  0
 15 25  2  0
 16 27  4  0
 17 18  4  0
 20 27  1  0
 24 27  4  0
 26 28  4  0
M  END
$$$$

 Created by Python create_sdf_string function

 29 33  0  0  0  0  0  0  0  0999 V2000
    8.8270   -7.0288   18.4251 C   0  0  0  0  0  0  0  0  0  0  0  0
    9.1576   -4.6236   15.8860 O   0  0  0  0  0  0  0  0  0  0  0  0
    9.1509   -5.9108   17.7177 C   0  0  0  0  0  0  0  0  0  0  0  0
    3.6373   -9.5349   16.0582 N   0  0  0  0  0  0  0  0  0  0  0  0
    9.9275   -4.8001   18.0438 N   0  0  0  0  0  0  0  0  0  0  0  0
    8.5908   -5.7425   16.4412 C   0  0  0  0  0  0  0  0  0  0  0  0
   10.5993   -4.8981   21.6068 C   0  0  0  0  0  0  0  0  0  0  0  0
   10.4258   -3.0106   23.0998 C   0  0  0  0  0  0  0  0  0  0  0  0
   10.2148   -3.4364   25.4200 C   0  0  0  0  0  0  0  0  0  0  0  0
    9.7853   -1.1840   24.4927 C   0  0  0  0  0  0  0  0  0  0  0  0
    5.0276   -8.5227   17.5352 C   0  0  0  0  0  0  0  0  0  0  0  0
    9.8187   -2.0895   25.5800 C   0  0  0  0  0  0  0  0  0  0  0  0
    5.6473   -8.7216   15.3158 C   0  0  0  0  0  0  0  0  0  0  0  0
   10.7581   -3.1233   19.4720 N   0  0  0  0  0  0  0  0  0  0  0  0
    9.9571   -4.0573   16.8866 C   0  0  0  0  0  0  0  0  0  0  0  0
    7.6213   -6.5618   16.0087 C   0  0  0  0  0  0  0  0  0  0  0  0
   10.8583   -2.6527   20.7222 C   0  0  0  0  0  0  0  0  0  0  0  0
   10.6412   -3.5089   21.7936 C   0  0  0  0  0  0  0  0  0  0  0  0
   10.4972   -3.8968   24.1589 C   0  0  0  0  0  0  0  0  0  0  0  0
    5.9260   -8.2736   16.5517 C   0  0  0  0  0  0  0  0  0  0  0  0
    3.8816   -9.1166   17.2493 C   0  0  0  0  0  0  0  0  0  0  0  0
   10.1297   -1.6575   23.2324 C   0  0  0  0  0  0  0  0  0  0  0  0
    9.4684   -1.6929   26.7263 F   0  0  0  0  0  0  0  0  0  0  0  0
    7.7963   -7.7906   17.9837 C   0  0  0  0  0  0  0  0  0  0  0  0
   10.5884   -3.0725   16.7902 O   0  0  0  0  0  0  0  0  0  0  0  0
   10.4323   -5.3494   20.3516 C   0  0  0  0  0  0  0  0  0  0  0  0
    7.1156   -7.5454   16.8218 C   0  0  0  0  0  0  0  0  0  0  0  0
   10.3885   -4.4388   19.2773 C   0  0  0  0  0  0  0  0  0  0  0  0
    4.5160   -9.3822   15.0841 C   0  0  0  0  0  0  0  0  0  0  0  0
  1  3  4  0
  1 24  4  0
  2  6  4  0
  2 15  4  0
  3  5  4  0
  3  6  4  0
  4 21  4  0
  4 29  4  0
  5 15  4  0
  5 28  1  0
  6 16  4  0
  7 18  4  0
  7 26  4  0
  8 18  1  0
  8 19  4  0
  8 22  4  0
  9 12  4  0
  9 19  4  0
 10 12  4  0
 10 22  4  0
 11 20  4  0
 11 21  4  0
 12 23  1  0
 13 20  4  0
 13 29  4  0
 14 17  4  0
 14 28  4  0
 15 25  2  0
 16 27  4  0
 17 18  4  0
 20 27  1  0
 24 27  4  0
 26 28  4  0
M  END
$$$$

 Created by Python create_sdf_string function

 29 33  0  0  0  0  0  0  0  0999 V2000
    8.8270   -7.0288   18.4251 C   0  0  0  0  0  0  0  0  0  0  0  0
    9.1576   -4.6236   15.8860 O   0  0  0  0  0  0  0  0  0  0  0  0
    9.1509   -5.9108   17.7177 C   0  0  0  0  0  0  0  0  0  0  0  0
    3.6373   -9.5349   16.0582 N   0  0  0  0  0  0  0  0  0  0  0  0
    9.9275   -4.8001   18.0438 N   0  0  0  0  0  0  0  0  0  0  0  0
    8.5908   -5.7425   16.4412 C   0  0  0  0  0  0  0  0  0  0  0  0
   10.5993   -4.8981   21.6068 C   0  0  0  0  0  0  0  0  0  0  0  0
   10.4258   -3.0106   23.0998 C   0  0  0  0  0  0  0  0  0  0  0  0
   10.2148   -3.4364   25.4200 C   0  0  0  0  0  0  0  0  0  0  0  0
    9.7853   -1.1840   24.4927 C   0  0  0  0  0  0  0  0  0  0  0  0
    5.0276   -8.5227   17.5352 C   0  0  0  0  0  0  0  0  0  0  0  0
    9.8187   -2.0895   25.5800 C   0  0  0  0  0  0  0  0  0  0  0  0
    5.6473   -8.7216   15.3158 C   0  0  0  0  0  0  0  0  0  0  0  0
   10.7581   -3.1233   19.4720 N   0  0  0  0  0  0  0  0  0  0  0  0
    9.9571   -4.0573   16.8866 C   0  0  0  0  0  0  0  0  0  0  0  0
    7.6213   -6.5618   16.0087 C   0  0  0  0  0  0  0  0  0  0  0  0
   10.8583   -2.6527   20.7222 C   0  0  0  0  0  0  0  0  0  0  0  0
   10.6412   -3.5089   21.7936 C   0  0  0  0  0  0  0  0  0  0  0  0
   10.4972   -3.8968   24.1589 C   0  0  0  0  0  0  0  0  0  0  0  0
    5.9260   -8.2736   16.5517 C   0  0  0  0  0  0  0  0  0  0  0  0
    3.8816   -9.1166   17.2493 C   0  0  0  0  0  0  0  0  0  0  0  0
   10.1297   -1.6575   23.2324 C   0  0  0  0  0  0  0  0  0  0  0  0
    9.4684   -1.6929   26.7263 F   0  0  0  0  0  0  0  0  0  0  0  0
    7.7963   -7.7906   17.9837 C   0  0  0  0  0  0  0  0  0  0  0  0
   10.5884   -3.0725   16.7902 O   0  0  0  0  0  0  0  0  0  0  0  0
   10.4323   -5.3494   20.3516 C   0  0  0  0  0  0  0  0  0  0  0  0
    7.1156   -7.5454   16.8218 C   0  0  0  0  0  0  0  0  0  0  0  0
   10.3885   -4.4388   19.2773 C   0  0  0  0  0  0  0  0  0  0  0  0
    4.5160   -9.3822   15.0841 C   0  0  0  0  0  0  0  0  0  0  0  0
  1  3  4  0
  1 24  4  0
  2  6  4  0
  2 15  4  0
  3  5  4  0
  3  6  4  0
  4 21  4  0
  4 29  4  0
  5 15  4  0
  5 28  1  0
  6 16  4  0
  7 18  4  0
  7 26  4  0
  8 18  1  0
  8 19  4  0
  8 22  4  0
  9 12  4  0
  9 19  4  0
 10 12  4  0
 10 22  4  0
 11 20  4  0
 11 21  4  0
 12 23  1  0
 13 20  4  0
 13 29  4  0
 14 17  4  0
 14 28  4  0
 15 25  2  0
 16 27  4  0
 17 18  4  0
 20 27  1  0
 24 27  4  0
 26 28  4  0
M  END
$$$$

 Created by Python create_sdf_string function

 29 33  0  0  0  0  0  0  0  0999 V2000
    8.8270   -7.0288   18.4251 C   0  0  0  0  0  0  0  0  0  0  0  0
    9.1576   -4.6236   15.8860 O   0  0  0  0  0  0  0  0  0  0  0  0
    9.1509   -5.9108   17.7177 C   0  0  0  0  0  0  0  0  0  0  0  0
    3.6373   -9.5349   16.0582 N   0  0  0  0  0  0  0  0  0  0  0  0
    9.9275   -4.8001   18.0438 N   0  0  0  0  0  0  0  0  0  0  0  0
    8.5908   -5.7425   16.4412 C   0  0  0  0  0  0  0  0  0  0  0  0
   10.5993   -4.8981   21.6068 C   0  0  0  0  0  0  0  0  0  0  0  0
   10.4258   -3.0106   23.0998 C   0  0  0  0  0  0  0  0  0  0  0  0
   10.2148   -3.4364   25.4200 C   0  0  0  0  0  0  0  0  0  0  0  0
    9.7853   -1.1840   24.4927 C   0  0  0  0  0  0  0  0  0  0  0  0
    5.0276   -8.5227   17.5352 C   0  0  0  0  0  0  0  0  0  0  0  0
    9.8187   -2.0895   25.5800 C   0  0  0  0  0  0  0  0  0  0  0  0
    5.6473   -8.7216   15.3158 C   0  0  0  0  0  0  0  0  0  0  0  0
   10.7581   -3.1233   19.4720 N   0  0  0  0  0  0  0  0  0  0  0  0
    9.9571   -4.0573   16.8866 C   0  0  0  0  0  0  0  0  0  0  0  0
    7.6213   -6.5618   16.0087 C   0  0  0  0  0  0  0  0  0  0  0  0
   10.8583   -2.6527   20.7222 C   0  0  0  0  0  0  0  0  0  0  0  0
   10.6412   -3.5089   21.7936 C   0  0  0  0  0  0  0  0  0  0  0  0
   10.4972   -3.8968   24.1589 C   0  0  0  0  0  0  0  0  0  0  0  0
    5.9260   -8.2736   16.5517 C   0  0  0  0  0  0  0  0  0  0  0  0
    3.8816   -9.1166   17.2493 C   0  0  0  0  0  0  0  0  0  0  0  0
   10.1297   -1.6575   23.2324 C   0  0  0  0  0  0  0  0  0  0  0  0
    9.4684   -1.6929   26.7263 F   0  0  0  0  0  0  0  0  0  0  0  0
    7.7963   -7.7906   17.9837 C   0  0  0  0  0  0  0  0  0  0  0  0
   10.5884   -3.0725   16.7902 O   0  0  0  0  0  0  0  0  0  0  0  0
   10.4323   -5.3494   20.3516 C   0  0  0  0  0  0  0  0  0  0  0  0
    7.1156   -7.5454   16.8218 C   0  0  0  0  0  0  0  0  0  0  0  0
   10.3885   -4.4388   19.2773 C   0  0  0  0  0  0  0  0  0  0  0  0
    4.5160   -9.3822   15.0841 C   0  0  0  0  0  0  0  0  0  0  0  0
  1  3  4  0
  1 24  4  0
  2  6  4  0
  2 15  4  0
  3  5  4  0
  3  6  4  0
  4 21  4  0
  4 29  4  0
  5 15  4  0
  5 28  1  0
  6 16  4  0
  7 18  4  0
  7 26  4  0
  8 18  1  0
  8 19  4  0
  8 22  4  0
  9 12  4  0
  9 19  4  0
 10 12  4  0
 10 22  4  0
 11 20  4  0
 11 21  4  0
 12 23  1  0
 13 20  4  0
 13 29  4  0
 14 17  4  0
 14 28  4  0
 15 25  2  0
 16 27  4  0
 17 18  4  0
 20 27  1  0
 24 27  4  0
 26 28  4  0
M  END
$$$$

 Created by Python create_sdf_string function

 29 33  0  0  0  0  0  0  0  0999 V2000
    8.8270   -7.0288   18.4251 C   0  0  0  0  0  0  0  0  0  0  0  0
    9.1576   -4.6236   15.8860 O   0  0  0  0  0  0  0  0  0  0  0  0
    9.1509   -5.9108   17.7177 C   0  0  0  0  0  0  0  0  0  0  0  0
    3.6373   -9.5349   16.0582 N   0  0  0  0  0  0  0  0  0  0  0  0
    9.9275   -4.8001   18.0438 N   0  0  0  0  0  0  0  0  0  0  0  0
    8.5908   -5.7425   16.4412 C   0  0  0  0  0  0  0  0  0  0  0  0
   10.5993   -4.8981   21.6068 C   0  0  0  0  0  0  0  0  0  0  0  0
   10.4258   -3.0106   23.0998 C   0  0  0  0  0  0  0  0  0  0  0  0
   10.2148   -3.4364   25.4200 C   0  0  0  0  0  0  0  0  0  0  0  0
    9.7853   -1.1840   24.4927 C   0  0  0  0  0  0  0  0  0  0  0  0
    5.0276   -8.5227   17.5352 C   0  0  0  0  0  0  0  0  0  0  0  0
    9.8187   -2.0895   25.5800 C   0  0  0  0  0  0  0  0  0  0  0  0
    5.6473   -8.7216   15.3158 C   0  0  0  0  0  0  0  0  0  0  0  0
   10.7581   -3.1233   19.4720 N   0  0  0  0  0  0  0  0  0  0  0  0
    9.9571   -4.0573   16.8866 C   0  0  0  0  0  0  0  0  0  0  0  0
    7.6213   -6.5618   16.0087 C   0  0  0  0  0  0  0  0  0  0  0  0
   10.8583   -2.6527   20.7222 C   0  0  0  0  0  0  0  0  0  0  0  0
   10.6412   -3.5089   21.7936 C   0  0  0  0  0  0  0  0  0  0  0  0
   10.4972   -3.8968   24.1589 C   0  0  0  0  0  0  0  0  0  0  0  0
    5.9260   -8.2736   16.5517 C   0  0  0  0  0  0  0  0  0  0  0  0
    3.8816   -9.1166   17.2493 C   0  0  0  0  0  0  0  0  0  0  0  0
   10.1297   -1.6575   23.2324 C   0  0  0  0  0  0  0  0  0  0  0  0
    9.4684   -1.6929   26.7263 F   0  0  0  0  0  0  0  0  0  0  0  0
    7.7963   -7.7906   17.9837 C   0  0  0  0  0  0  0  0  0  0  0  0
   10.5884   -3.0725   16.7902 O   0  0  0  0  0  0  0  0  0  0  0  0
   10.4323   -5.3494   20.3516 C   0  0  0  0  0  0  0  0  0  0  0  0
    7.1156   -7.5454   16.8218 C   0  0  0  0  0  0  0  0  0  0  0  0
   10.3885   -4.4388   19.2773 C   0  0  0  0  0  0  0  0  0  0  0  0
    4.5160   -9.3822   15.0841 C   0  0  0  0  0  0  0  0  0  0  0  0
  1  3  4  0
  1 24  4  0
  2  6  4  0
  2 15  4  0
  3  5  4  0
  3  6  4  0
  4 21  4  0
  4 29  4  0
  5 15  4  0
  5 28  1  0
  6 16  4  0
  7 18  4  0
  7 26  4  0
  8 18  1  0
  8 19  4  0
  8 22  4  0
  9 12  4  0
  9 19  4  0
 10 12  4  0
 10 22  4  0
 11 20  4  0
 11 21  4  0
 12 23  1  0
 13 20  4  0
 13 29  4  0
 14 17  4  0
 14 28  4  0
 15 25  2  0
 16 27  4  0
 17 18  4  0
 20 27  1  0
 24 27  4  0
 26 28  4  0
M  END
$$$$

 Created by Python create_sdf_string function

 29 33  0  0  0  0  0  0  0  0999 V2000
    8.8270   -7.0288   18.4251 C   0  0  0  0  0  0  0  0  0  0  0  0
    9.1576   -4.6236   15.8860 O   0  0  0  0  0  0  0  0  0  0  0  0
    9.1509   -5.9108   17.7177 C   0  0  0  0  0  0  0  0  0  0  0  0
    3.6373   -9.5349   16.0582 N   0  0  0  0  0  0  0  0  0  0  0  0
    9.9275   -4.8001   18.0438 N   0  0  0  0  0  0  0  0  0  0  0  0
    8.5908   -5.7425   16.4412 C   0  0  0  0  0  0  0  0  0  0  0  0
   10.5993   -4.8981   21.6068 C   0  0  0  0  0  0  0  0  0  0  0  0
   10.4258   -3.0106   23.0998 C   0  0  0  0  0  0  0  0  0  0  0  0
   10.2148   -3.4364   25.4200 C   0  0  0  0  0  0  0  0  0  0  0  0
    9.7853   -1.1840   24.4927 C   0  0  0  0  0  0  0  0  0  0  0  0
    5.0276   -8.5227   17.5352 C   0  0  0  0  0  0  0  0  0  0  0  0
    9.8187   -2.0895   25.5800 C   0  0  0  0  0  0  0  0  0  0  0  0
    5.6473   -8.7216   15.3158 C   0  0  0  0  0  0  0  0  0  0  0  0
   10.7581   -3.1233   19.4720 N   0  0  0  0  0  0  0  0  0  0  0  0
    9.9571   -4.0573   16.8866 C   0  0  0  0  0  0  0  0  0  0  0  0
    7.6213   -6.5618   16.0087 C   0  0  0  0  0  0  0  0  0  0  0  0
   10.8583   -2.6527   20.7222 C   0  0  0  0  0  0  0  0  0  0  0  0
   10.6412   -3.5089   21.7936 C   0  0  0  0  0  0  0  0  0  0  0  0
   10.4972   -3.8968   24.1589 C   0  0  0  0  0  0  0  0  0  0  0  0
    5.9260   -8.2736   16.5517 C   0  0  0  0  0  0  0  0  0  0  0  0
    3.8816   -9.1166   17.2493 C   0  0  0  0  0  0  0  0  0  0  0  0
   10.1297   -1.6575   23.2324 C   0  0  0  0  0  0  0  0  0  0  0  0
    9.4684   -1.6929   26.7263 F   0  0  0  0  0  0  0  0  0  0  0  0
    7.7963   -7.7906   17.9837 C   0  0  0  0  0  0  0  0  0  0  0  0
   10.5884   -3.0725   16.7902 O   0  0  0  0  0  0  0  0  0  0  0  0
   10.4323   -5.3494   20.3516 C   0  0  0  0  0  0  0  0  0  0  0  0
    7.1156   -7.5454   16.8218 C   0  0  0  0  0  0  0  0  0  0  0  0
   10.3885   -4.4388   19.2773 C   0  0  0  0  0  0  0  0  0  0  0  0
    4.5160   -9.3822   15.0841 C   0  0  0  0  0  0  0  0  0  0  0  0
  1  3  4  0
  1 24  4  0
  2  6  4  0
  2 15  4  0
  3  5  4  0
  3  6  4  0
  4 21  4  0
  4 29  4  0
  5 15  4  0
  5 28  1  0
  6 16  4  0
  7 18  4  0
  7 26  4  0
  8 18  1  0
  8 19  4  0
  8 22  4  0
  9 12  4  0
  9 19  4  0
 10 12  4  0
 10 22  4  0
 11 20  4  0
 11 21  4  0
 12 23  1  0
 13 20  4  0
 13 29  4  0
 14 17  4  0
 14 28  4  0
 15 25  2  0
 16 27  4  0
 17 18  4  0
 20 27  1  0
 24 27  4  0
 26 28  4  0
M  END
$$$$

 Created by Python create_sdf_string function

 29 33  0  0  0  0  0  0  0  0999 V2000
    8.8270   -7.0288   18.4251 C   0  0  0  0  0  0  0  0  0  0  0  0
    9.1576   -4.6236   15.8860 O   0  0  0  0  0  0  0  0  0  0  0  0
    9.1509   -5.9108   17.7177 C   0  0  0  0  0  0  0  0  0  0  0  0
    3.6373   -9.5349   16.0582 N   0  0  0  0  0  0  0  0  0  0  0  0
    9.9275   -4.8001   18.0438 N   0  0  0  0  0  0  0  0  0  0  0  0
    8.5908   -5.7425   16.4412 C   0  0  0  0  0  0  0  0  0  0  0  0
   10.5993   -4.8981   21.6068 C   0  0  0  0  0  0  0  0  0  0  0  0
   10.4258   -3.0106   23.0998 C   0  0  0  0  0  0  0  0  0  0  0  0
   10.2148   -3.4364   25.4200 C   0  0  0  0  0  0  0  0  0  0  0  0
    9.7853   -1.1840   24.4927 C   0  0  0  0  0  0  0  0  0  0  0  0
    5.0276   -8.5227   17.5352 C   0  0  0  0  0  0  0  0  0  0  0  0
    9.8187   -2.0895   25.5800 C   0  0  0  0  0  0  0  0  0  0  0  0
    5.6473   -8.7216   15.3158 C   0  0  0  0  0  0  0  0  0  0  0  0
   10.7581   -3.1233   19.4720 N   0  0  0  0  0  0  0  0  0  0  0  0
    9.9571   -4.0573   16.8866 C   0  0  0  0  0  0  0  0  0  0  0  0
    7.6213   -6.5618   16.0087 C   0  0  0  0  0  0  0  0  0  0  0  0
   10.8583   -2.6527   20.7222 C   0  0  0  0  0  0  0  0  0  0  0  0
   10.6412   -3.5089   21.7936 C   0  0  0  0  0  0  0  0  0  0  0  0
   10.4972   -3.8968   24.1589 C   0  0  0  0  0  0  0  0  0  0  0  0
    5.9260   -8.2736   16.5517 C   0  0  0  0  0  0  0  0  0  0  0  0
    3.8816   -9.1166   17.2493 C   0  0  0  0  0  0  0  0  0  0  0  0
   10.1297   -1.6575   23.2324 C   0  0  0  0  0  0  0  0  0  0  0  0
    9.4684   -1.6929   26.7263 F   0  0  0  0  0  0  0  0  0  0  0  0
    7.7963   -7.7906   17.9837 C   0  0  0  0  0  0  0  0  0  0  0  0
   10.5884   -3.0725   16.7902 O   0  0  0  0  0  0  0  0  0  0  0  0
   10.4323   -5.3494   20.3516 C   0  0  0  0  0  0  0  0  0  0  0  0
    7.1156   -7.5454   16.8218 C   0  0  0  0  0  0  0  0  0  0  0  0
   10.3885   -4.4388   19.2773 C   0  0  0  0  0  0  0  0  0  0  0  0
    4.5160   -9.3822   15.0841 C   0  0  0  0  0  0  0  0  0  0  0  0
  1  3  4  0
  1 24  4  0
  2  6  4  0
  2 15  4  0
  3  5  4  0
  3  6  4  0
  4 21  4  0
  4 29  4  0
  5 15  4  0
  5 28  1  0
  6 16  4  0
  7 18  4  0
  7 26  4  0
  8 18  1  0
  8 19  4  0
  8 22  4  0
  9 12  4  0
  9 19  4  0
 10 12  4  0
 10 22  4  0
 11 20  4  0
 11 21  4  0
 12 23  1  0
 13 20  4  0
 13 29  4  0
 14 17  4  0
 14 28  4  0
 15 25  2  0
 16 27  4  0
 17 18  4  0
 20 27  1  0
 24 27  4  0
 26 28  4  0
M  END
$$$$

 Created by Python create_sdf_string function

 29 33  0  0  0  0  0  0  0  0999 V2000
    8.8270   -7.0288   18.4251 C   0  0  0  0  0  0  0  0  0  0  0  0
    9.1576   -4.6236   15.8860 O   0  0  0  0  0  0  0  0  0  0  0  0
    9.1509   -5.9108   17.7177 C   0  0  0  0  0  0  0  0  0  0  0  0
    3.6373   -9.5349   16.0582 N   0  0  0  0  0  0  0  0  0  0  0  0
    9.9275   -4.8001   18.0438 N   0  0  0  0  0  0  0  0  0  0  0  0
    8.5908   -5.7425   16.4412 C   0  0  0  0  0  0  0  0  0  0  0  0
   10.5993   -4.8981   21.6068 C   0  0  0  0  0  0  0  0  0  0  0  0
   10.4258   -3.0106   23.0998 C   0  0  0  0  0  0  0  0  0  0  0  0
   10.2148   -3.4364   25.4200 C   0  0  0  0  0  0  0  0  0  0  0  0
    9.7853   -1.1840   24.4927 C   0  0  0  0  0  0  0  0  0  0  0  0
    5.0276   -8.5227   17.5352 C   0  0  0  0  0  0  0  0  0  0  0  0
    9.8187   -2.0895   25.5800 C   0  0  0  0  0  0  0  0  0  0  0  0
    5.6473   -8.7216   15.3158 C   0  0  0  0  0  0  0  0  0  0  0  0
   10.7581   -3.1233   19.4720 N   0  0  0  0  0  0  0  0  0  0  0  0
    9.9571   -4.0573   16.8866 C   0  0  0  0  0  0  0  0  0  0  0  0
    7.6213   -6.5618   16.0087 C   0  0  0  0  0  0  0  0  0  0  0  0
   10.8583   -2.6527   20.7222 C   0  0  0  0  0  0  0  0  0  0  0  0
   10.6412   -3.5089   21.7936 C   0  0  0  0  0  0  0  0  0  0  0  0
   10.4972   -3.8968   24.1589 C   0  0  0  0  0  0  0  0  0  0  0  0
    5.9260   -8.2736   16.5517 C   0  0  0  0  0  0  0  0  0  0  0  0
    3.8816   -9.1166   17.2493 C   0  0  0  0  0  0  0  0  0  0  0  0
   10.1297   -1.6575   23.2324 C   0  0  0  0  0  0  0  0  0  0  0  0
    9.4684   -1.6929   26.7263 F   0  0  0  0  0  0  0  0  0  0  0  0
    7.7963   -7.7906   17.9837 C   0  0  0  0  0  0  0  0  0  0  0  0
   10.5884   -3.0725   16.7902 O   0  0  0  0  0  0  0  0  0  0  0  0
   10.4323   -5.3494   20.3516 C   0  0  0  0  0  0  0  0  0  0  0  0
    7.1156   -7.5454   16.8218 C   0  0  0  0  0  0  0  0  0  0  0  0
   10.3885   -4.4388   19.2773 C   0  0  0  0  0  0  0  0  0  0  0  0
    4.5160   -9.3822   15.0841 C   0  0  0  0  0  0  0  0  0  0  0  0
  1  3  4  0
  1 24  4  0
  2  6  4  0
  2 15  4  0
  3  5  4  0
  3  6  4  0
  4 21  4  0
  4 29  4  0
  5 15  4  0
  5 28  1  0
  6 16  4  0
  7 18  4  0
  7 26  4  0
  8 18  1  0
  8 19  4  0
  8 22  4  0
  9 12  4  0
  9 19  4  0
 10 12  4  0
 10 22  4  0
 11 20  4  0
 11 21  4  0
 12 23  1  0
 13 20  4  0
 13 29  4  0
 14 17  4  0
 14 28  4  0
 15 25  2  0
 16 27  4  0
 17 18  4  0
 20 27  1  0
 24 27  4  0
 26 28  4  0
M  END
$$$$

 Created by Python create_sdf_string function

 29 33  0  0  0  0  0  0  0  0999 V2000
    8.8270   -7.0288   18.4251 C   0  0  0  0  0  0  0  0  0  0  0  0
    9.1576   -4.6236   15.8860 O   0  0  0  0  0  0  0  0  0  0  0  0
    9.1509   -5.9108   17.7177 C   0  0  0  0  0  0  0  0  0  0  0  0
    3.6373   -9.5349   16.0582 N   0  0  0  0  0  0  0  0  0  0  0  0
    9.9275   -4.8001   18.0438 N   0  0  0  0  0  0  0  0  0  0  0  0
    8.5908   -5.7425   16.4412 C   0  0  0  0  0  0  0  0  0  0  0  0
   10.5993   -4.8981   21.6068 C   0  0  0  0  0  0  0  0  0  0  0  0
   10.4258   -3.0106   23.0998 C   0  0  0  0  0  0  0  0  0  0  0  0
   10.2148   -3.4364   25.4200 C   0  0  0  0  0  0  0  0  0  0  0  0
    9.7853   -1.1840   24.4927 C   0  0  0  0  0  0  0  0  0  0  0  0
    5.0276   -8.5227   17.5352 C   0  0  0  0  0  0  0  0  0  0  0  0
    9.8187   -2.0895   25.5800 C   0  0  0  0  0  0  0  0  0  0  0  0
    5.6473   -8.7216   15.3158 C   0  0  0  0  0  0  0  0  0  0  0  0
   10.7581   -3.1233   19.4720 N   0  0  0  0  0  0  0  0  0  0  0  0
    9.9571   -4.0573   16.8866 C   0  0  0  0  0  0  0  0  0  0  0  0
    7.6213   -6.5618   16.0087 C   0  0  0  0  0  0  0  0  0  0  0  0
   10.8583   -2.6527   20.7222 C   0  0  0  0  0  0  0  0  0  0  0  0
   10.6412   -3.5089   21.7936 C   0  0  0  0  0  0  0  0  0  0  0  0
   10.4972   -3.8968   24.1589 C   0  0  0  0  0  0  0  0  0  0  0  0
    5.9260   -8.2736   16.5517 C   0  0  0  0  0  0  0  0  0  0  0  0
    3.8816   -9.1166   17.2493 C   0  0  0  0  0  0  0  0  0  0  0  0
   10.1297   -1.6575   23.2324 C   0  0  0  0  0  0  0  0  0  0  0  0
    9.4684   -1.6929   26.7263 F   0  0  0  0  0  0  0  0  0  0  0  0
    7.7963   -7.7906   17.9837 C   0  0  0  0  0  0  0  0  0  0  0  0
   10.5884   -3.0725   16.7902 O   0  0  0  0  0  0  0  0  0  0  0  0
   10.4323   -5.3494   20.3516 C   0  0  0  0  0  0  0  0  0  0  0  0
    7.1156   -7.5454   16.8218 C   0  0  0  0  0  0  0  0  0  0  0  0
   10.3885   -4.4388   19.2773 C   0  0  0  0  0  0  0  0  0  0  0  0
    4.5160   -9.3822   15.0841 C   0  0  0  0  0  0  0  0  0  0  0  0
  1  3  4  0
  1 24  4  0
  2  6  4  0
  2 15  4  0
  3  5  4  0
  3  6  4  0
  4 21  4  0
  4 29  4  0
  5 15  4  0
  5 28  1  0
  6 16  4  0
  7 18  4  0
  7 26  4  0
  8 18  1  0
  8 19  4  0
  8 22  4  0
  9 12  4  0
  9 19  4  0
 10 12  4  0
 10 22  4  0
 11 20  4  0
 11 21  4  0
 12 23  1  0
 13 20  4  0
 13 29  4  0
 14 17  4  0
 14 28  4  0
 15 25  2  0
 16 27  4  0
 17 18  4  0
 20 27  1  0
 24 27  4  0
 26 28  4  0
M  END
$$$$

 Created by Python create_sdf_string function

 29 33  0  0  0  0  0  0  0  0999 V2000
    8.8270   -7.0288   18.4251 C   0  0  0  0  0  0  0  0  0  0  0  0
    9.1576   -4.6236   15.8860 O   0  0  0  0  0  0  0  0  0  0  0  0
    9.1509   -5.9108   17.7177 C   0  0  0  0  0  0  0  0  0  0  0  0
    3.6373   -9.5349   16.0582 N   0  0  0  0  0  0  0  0  0  0  0  0
    9.9275   -4.8001   18.0438 N   0  0  0  0  0  0  0  0  0  0  0  0
    8.5908   -5.7425   16.4412 C   0  0  0  0  0  0  0  0  0  0  0  0
   10.5993   -4.8981   21.6068 C   0  0  0  0  0  0  0  0  0  0  0  0
   10.4258   -3.0106   23.0998 C   0  0  0  0  0  0  0  0  0  0  0  0
   10.2148   -3.4364   25.4200 C   0  0  0  0  0  0  0  0  0  0  0  0
    9.7853   -1.1840   24.4927 C   0  0  0  0  0  0  0  0  0  0  0  0
    5.0276   -8.5227   17.5352 C   0  0  0  0  0  0  0  0  0  0  0  0
    9.8187   -2.0895   25.5800 C   0  0  0  0  0  0  0  0  0  0  0  0
    5.6473   -8.7216   15.3158 C   0  0  0  0  0  0  0  0  0  0  0  0
   10.7581   -3.1233   19.4720 N   0  0  0  0  0  0  0  0  0  0  0  0
    9.9571   -4.0573   16.8866 C   0  0  0  0  0  0  0  0  0  0  0  0
    7.6213   -6.5618   16.0087 C   0  0  0  0  0  0  0  0  0  0  0  0
   10.8583   -2.6527   20.7222 C   0  0  0  0  0  0  0  0  0  0  0  0
   10.6412   -3.5089   21.7936 C   0  0  0  0  0  0  0  0  0  0  0  0
   10.4972   -3.8968   24.1589 C   0  0  0  0  0  0  0  0  0  0  0  0
    5.9260   -8.2736   16.5517 C   0  0  0  0  0  0  0  0  0  0  0  0
    3.8816   -9.1166   17.2493 C   0  0  0  0  0  0  0  0  0  0  0  0
   10.1297   -1.6575   23.2324 C   0  0  0  0  0  0  0  0  0  0  0  0
    9.4684   -1.6929   26.7263 F   0  0  0  0  0  0  0  0  0  0  0  0
    7.7963   -7.7906   17.9837 C   0  0  0  0  0  0  0  0  0  0  0  0
   10.5884   -3.0725   16.7902 O   0  0  0  0  0  0  0  0  0  0  0  0
   10.4323   -5.3494   20.3516 C   0  0  0  0  0  0  0  0  0  0  0  0
    7.1156   -7.5454   16.8218 C   0  0  0  0  0  0  0  0  0  0  0  0
   10.3885   -4.4388   19.2773 C   0  0  0  0  0  0  0  0  0  0  0  0
    4.5160   -9.3822   15.0841 C   0  0  0  0  0  0  0  0  0  0  0  0
  1  3  4  0
  1 24  4  0
  2  6  4  0
  2 15  4  0
  3  5  4  0
  3  6  4  0
  4 21  4  0
  4 29  4  0
  5 15  4  0
  5 28  1  0
  6 16  4  0
  7 18  4  0
  7 26  4  0
  8 18  1  0
  8 19  4  0
  8 22  4  0
  9 12  4  0
  9 19  4  0
 10 12  4  0
 10 22  4  0
 11 20  4  0
 11 21  4  0
 12 23  1  0
 13 20  4  0
 13 29  4  0
 14 17  4  0
 14 28  4  0
 15 25  2  0
 16 27  4  0
 17 18  4  0
 20 27  1  0
 24 27  4  0
 26 28  4  0
M  END
$$$$

 Created by Python create_sdf_string function

 29 33  0  0  0  0  0  0  0  0999 V2000
    8.8270   -7.0288   18.4251 C   0  0  0  0  0  0  0  0  0  0  0  0
    9.1576   -4.6236   15.8860 O   0  0  0  0  0  0  0  0  0  0  0  0
    9.1509   -5.9108   17.7177 C   0  0  0  0  0  0  0  0  0  0  0  0
    3.6373   -9.5349   16.0582 N   0  0  0  0  0  0  0  0  0  0  0  0
    9.9275   -4.8001   18.0438 N   0  0  0  0  0  0  0  0  0  0  0  0
    8.5908   -5.7425   16.4412 C   0  0  0  0  0  0  0  0  0  0  0  0
   10.5993   -4.8981   21.6068 C   0  0  0  0  0  0  0  0  0  0  0  0
   10.4258   -3.0106   23.0998 C   0  0  0  0  0  0  0  0  0  0  0  0
   10.2148   -3.4364   25.4200 C   0  0  0  0  0  0  0  0  0  0  0  0
    9.7853   -1.1840   24.4927 C   0  0  0  0  0  0  0  0  0  0  0  0
    5.0276   -8.5227   17.5352 C   0  0  0  0  0  0  0  0  0  0  0  0
    9.8187   -2.0895   25.5800 C   0  0  0  0  0  0  0  0  0  0  0  0
    5.6473   -8.7216   15.3158 C   0  0  0  0  0  0  0  0  0  0  0  0
   10.7581   -3.1233   19.4720 N   0  0  0  0  0  0  0  0  0  0  0  0
    9.9571   -4.0573   16.8866 C   0  0  0  0  0  0  0  0  0  0  0  0
    7.6213   -6.5618   16.0087 C   0  0  0  0  0  0  0  0  0  0  0  0
   10.8583   -2.6527   20.7222 C   0  0  0  0  0  0  0  0  0  0  0  0
   10.6412   -3.5089   21.7936 C   0  0  0  0  0  0  0  0  0  0  0  0
   10.4972   -3.8968   24.1589 C   0  0  0  0  0  0  0  0  0  0  0  0
    5.9260   -8.2736   16.5517 C   0  0  0  0  0  0  0  0  0  0  0  0
    3.8816   -9.1166   17.2493 C   0  0  0  0  0  0  0  0  0  0  0  0
   10.1297   -1.6575   23.2324 C   0  0  0  0  0  0  0  0  0  0  0  0
    9.4684   -1.6929   26.7263 F   0  0  0  0  0  0  0  0  0  0  0  0
    7.7963   -7.7906   17.9837 C   0  0  0  0  0  0  0  0  0  0  0  0
   10.5884   -3.0725   16.7902 O   0  0  0  0  0  0  0  0  0  0  0  0
   10.4323   -5.3494   20.3516 C   0  0  0  0  0  0  0  0  0  0  0  0
    7.1156   -7.5454   16.8218 C   0  0  0  0  0  0  0  0  0  0  0  0
   10.3885   -4.4388   19.2773 C   0  0  0  0  0  0  0  0  0  0  0  0
    4.5160   -9.3822   15.0841 C   0  0  0  0  0  0  0  0  0  0  0  0
  1  3  4  0
  1 24  4  0
  2  6  4  0
  2 15  4  0
  3  5  4  0
  3  6  4  0
  4 21  4  0
  4 29  4  0
  5 15  4  0
  5 28  1  0
  6 16  4  0
  7 18  4  0
  7 26  4  0
  8 18  1  0
  8 19  4  0
  8 22  4  0
  9 12  4  0
  9 19  4  0
 10 12  4  0
 10 22  4  0
 11 20  4  0
 11 21  4  0
 12 23  1  0
 13 20  4  0
 13 29  4  0
 14 17  4  0
 14 28  4  0
 15 25  2  0
 16 27  4  0
 17 18  4  0
 20 27  1  0
 24 27  4  0
 26 28  4  0
M  END
$$$$

 Created by Python create_sdf_string function

 29 33  0  0  0  0  0  0  0  0999 V2000
    8.8270   -7.0288   18.4251 C   0  0  0  0  0  0  0  0  0  0  0  0
    9.1576   -4.6236   15.8860 O   0  0  0  0  0  0  0  0  0  0  0  0
    9.1509   -5.9108   17.7177 C   0  0  0  0  0  0  0  0  0  0  0  0
    3.6373   -9.5349   16.0582 N   0  0  0  0  0  0  0  0  0  0  0  0
    9.9275   -4.8001   18.0438 N   0  0  0  0  0  0  0  0  0  0  0  0
    8.5908   -5.7425   16.4412 C   0  0  0  0  0  0  0  0  0  0  0  0
   10.5993   -4.8981   21.6068 C   0  0  0  0  0  0  0  0  0  0  0  0
   10.4258   -3.0106   23.0998 C   0  0  0  0  0  0  0  0  0  0  0  0
   10.2148   -3.4364   25.4200 C   0  0  0  0  0  0  0  0  0  0  0  0
    9.7853   -1.1840   24.4927 C   0  0  0  0  0  0  0  0  0  0  0  0
    5.0276   -8.5227   17.5352 C   0  0  0  0  0  0  0  0  0  0  0  0
    9.8187   -2.0895   25.5800 C   0  0  0  0  0  0  0  0  0  0  0  0
    5.6473   -8.7216   15.3158 C   0  0  0  0  0  0  0  0  0  0  0  0
   10.7581   -3.1233   19.4720 N   0  0  0  0  0  0  0  0  0  0  0  0
    9.9571   -4.0573   16.8866 C   0  0  0  0  0  0  0  0  0  0  0  0
    7.6213   -6.5618   16.0087 C   0  0  0  0  0  0  0  0  0  0  0  0
   10.8583   -2.6527   20.7222 C   0  0  0  0  0  0  0  0  0  0  0  0
   10.6412   -3.5089   21.7936 C   0  0  0  0  0  0  0  0  0  0  0  0
   10.4972   -3.8968   24.1589 C   0  0  0  0  0  0  0  0  0  0  0  0
    5.9260   -8.2736   16.5517 C   0  0  0  0  0  0  0  0  0  0  0  0
    3.8816   -9.1166   17.2493 C   0  0  0  0  0  0  0  0  0  0  0  0
   10.1297   -1.6575   23.2324 C   0  0  0  0  0  0  0  0  0  0  0  0
    9.4684   -1.6929   26.7263 F   0  0  0  0  0  0  0  0  0  0  0  0
    7.7963   -7.7906   17.9837 C   0  0  0  0  0  0  0  0  0  0  0  0
   10.5884   -3.0725   16.7902 O   0  0  0  0  0  0  0  0  0  0  0  0
   10.4323   -5.3494   20.3516 C   0  0  0  0  0  0  0  0  0  0  0  0
    7.1156   -7.5454   16.8218 C   0  0  0  0  0  0  0  0  0  0  0  0
   10.3885   -4.4388   19.2773 C   0  0  0  0  0  0  0  0  0  0  0  0
    4.5160   -9.3822   15.0841 C   0  0  0  0  0  0  0  0  0  0  0  0
  1  3  4  0
  1 24  4  0
  2  6  4  0
  2 15  4  0
  3  5  4  0
  3  6  4  0
  4 21  4  0
  4 29  4  0
  5 15  4  0
  5 28  1  0
  6 16  4  0
  7 18  4  0
  7 26  4  0
  8 18  1  0
  8 19  4  0
  8 22  4  0
  9 12  4  0
  9 19  4  0
 10 12  4  0
 10 22  4  0
 11 20  4  0
 11 21  4  0
 12 23  1  0
 13 20  4  0
 13 29  4  0
 14 17  4  0
 14 28  4  0
 15 25  2  0
 16 27  4  0
 17 18  4  0
 20 27  1  0
 24 27  4  0
 26 28  4  0
M  END
$$$$

 Created by Python create_sdf_string function

 29 33  0  0  0  0  0  0  0  0999 V2000
    8.8270   -7.0288   18.4251 C   0  0  0  0  0  0  0  0  0  0  0  0
    9.1576   -4.6236   15.8860 O   0  0  0  0  0  0  0  0  0  0  0  0
    9.1509   -5.9108   17.7177 C   0  0  0  0  0  0  0  0  0  0  0  0
    3.6373   -9.5349   16.0582 N   0  0  0  0  0  0  0  0  0  0  0  0
    9.9275   -4.8001   18.0438 N   0  0  0  0  0  0  0  0  0  0  0  0
    8.5908   -5.7425   16.4412 C   0  0  0  0  0  0  0  0  0  0  0  0
   10.5993   -4.8981   21.6068 C   0  0  0  0  0  0  0  0  0  0  0  0
   10.4258   -3.0106   23.0998 C   0  0  0  0  0  0  0  0  0  0  0  0
   10.2148   -3.4364   25.4200 C   0  0  0  0  0  0  0  0  0  0  0  0
    9.7853   -1.1840   24.4927 C   0  0  0  0  0  0  0  0  0  0  0  0
    5.0276   -8.5227   17.5352 C   0  0  0  0  0  0  0  0  0  0  0  0
    9.8187   -2.0895   25.5800 C   0  0  0  0  0  0  0  0  0  0  0  0
    5.6473   -8.7216   15.3158 C   0  0  0  0  0  0  0  0  0  0  0  0
   10.7581   -3.1233   19.4720 N   0  0  0  0  0  0  0  0  0  0  0  0
    9.9571   -4.0573   16.8866 C   0  0  0  0  0  0  0  0  0  0  0  0
    7.6213   -6.5618   16.0087 C   0  0  0  0  0  0  0  0  0  0  0  0
   10.8583   -2.6527   20.7222 C   0  0  0  0  0  0  0  0  0  0  0  0
   10.6412   -3.5089   21.7936 C   0  0  0  0  0  0  0  0  0  0  0  0
   10.4972   -3.8968   24.1589 C   0  0  0  0  0  0  0  0  0  0  0  0
    5.9260   -8.2736   16.5517 C   0  0  0  0  0  0  0  0  0  0  0  0
    3.8816   -9.1166   17.2493 C   0  0  0  0  0  0  0  0  0  0  0  0
   10.1297   -1.6575   23.2324 C   0  0  0  0  0  0  0  0  0  0  0  0
    9.4684   -1.6929   26.7263 F   0  0  0  0  0  0  0  0  0  0  0  0
    7.7963   -7.7906   17.9837 C   0  0  0  0  0  0  0  0  0  0  0  0
   10.5884   -3.0725   16.7902 O   0  0  0  0  0  0  0  0  0  0  0  0
   10.4323   -5.3494   20.3516 C   0  0  0  0  0  0  0  0  0  0  0  0
    7.1156   -7.5454   16.8218 C   0  0  0  0  0  0  0  0  0  0  0  0
   10.3885   -4.4388   19.2773 C   0  0  0  0  0  0  0  0  0  0  0  0
    4.5160   -9.3822   15.0841 C   0  0  0  0  0  0  0  0  0  0  0  0
  1  3  4  0
  1 24  4  0
  2  6  4  0
  2 15  4  0
  3  5  4  0
  3  6  4  0
  4 21  4  0
  4 29  4  0
  5 15  4  0
  5 28  1  0
  6 16  4  0
  7 18  4  0
  7 26  4  0
  8 18  1  0
  8 19  4  0
  8 22  4  0
  9 12  4  0
  9 19  4  0
 10 12  4  0
 10 22  4  0
 11 20  4  0
 11 21  4  0
 12 23  1  0
 13 20  4  0
 13 29  4  0
 14 17  4  0
 14 28  4  0
 15 25  2  0
 16 27  4  0
 17 18  4  0
 20 27  1  0
 24 27  4  0
 26 28  4  0
M  END
$$$$

 Created by Python create_sdf_string function

 29 33  0  0  0  0  0  0  0  0999 V2000
    8.8270   -7.0288   18.4251 C   0  0  0  0  0  0  0  0  0  0  0  0
    9.1576   -4.6236   15.8860 O   0  0  0  0  0  0  0  0  0  0  0  0
    9.1509   -5.9108   17.7177 C   0  0  0  0  0  0  0  0  0  0  0  0
    3.6373   -9.5349   16.0582 N   0  0  0  0  0  0  0  0  0  0  0  0
    9.9275   -4.8001   18.0438 N   0  0  0  0  0  0  0  0  0  0  0  0
    8.5908   -5.7425   16.4412 C   0  0  0  0  0  0  0  0  0  0  0  0
   10.5993   -4.8981   21.6068 C   0  0  0  0  0  0  0  0  0  0  0  0
   10.4258   -3.0106   23.0998 C   0  0  0  0  0  0  0  0  0  0  0  0
   10.2148   -3.4364   25.4200 C   0  0  0  0  0  0  0  0  0  0  0  0
    9.7853   -1.1840   24.4927 C   0  0  0  0  0  0  0  0  0  0  0  0
    5.0276   -8.5227   17.5352 C   0  0  0  0  0  0  0  0  0  0  0  0
    9.8187   -2.0895   25.5800 C   0  0  0  0  0  0  0  0  0  0  0  0
    5.6473   -8.7216   15.3158 C   0  0  0  0  0  0  0  0  0  0  0  0
   10.7581   -3.1233   19.4720 N   0  0  0  0  0  0  0  0  0  0  0  0
    9.9571   -4.0573   16.8866 C   0  0  0  0  0  0  0  0  0  0  0  0
    7.6213   -6.5618   16.0087 C   0  0  0  0  0  0  0  0  0  0  0  0
   10.8583   -2.6527   20.7222 C   0  0  0  0  0  0  0  0  0  0  0  0
   10.6412   -3.5089   21.7936 C   0  0  0  0  0  0  0  0  0  0  0  0
   10.4972   -3.8968   24.1589 C   0  0  0  0  0  0  0  0  0  0  0  0
    5.9260   -8.2736   16.5517 C   0  0  0  0  0  0  0  0  0  0  0  0
    3.8816   -9.1166   17.2493 C   0  0  0  0  0  0  0  0  0  0  0  0
   10.1297   -1.6575   23.2324 C   0  0  0  0  0  0  0  0  0  0  0  0
    9.4684   -1.6929   26.7263 F   0  0  0  0  0  0  0  0  0  0  0  0
    7.7963   -7.7906   17.9837 C   0  0  0  0  0  0  0  0  0  0  0  0
   10.5884   -3.0725   16.7902 O   0  0  0  0  0  0  0  0  0  0  0  0
   10.4323   -5.3494   20.3516 C   0  0  0  0  0  0  0  0  0  0  0  0
    7.1156   -7.5454   16.8218 C   0  0  0  0  0  0  0  0  0  0  0  0
   10.3885   -4.4388   19.2773 C   0  0  0  0  0  0  0  0  0  0  0  0
    4.5160   -9.3822   15.0841 C   0  0  0  0  0  0  0  0  0  0  0  0
  1  3  4  0
  1 24  4  0
  2  6  4  0
  2 15  4  0
  3  5  4  0
  3  6  4  0
  4 21  4  0
  4 29  4  0
  5 15  4  0
  5 28  1  0
  6 16  4  0
  7 18  4  0
  7 26  4  0
  8 18  1  0
  8 19  4  0
  8 22  4  0
  9 12  4  0
  9 19  4  0
 10 12  4  0
 10 22  4  0
 11 20  4  0
 11 21  4  0
 12 23  1  0
 13 20  4  0
 13 29  4  0
 14 17  4  0
 14 28  4  0
 15 25  2  0
 16 27  4  0
 17 18  4  0
 20 27  1  0
 24 27  4  0
 26 28  4  0
M  END
$$$$

 Created by Python create_sdf_string function

 29 33  0  0  0  0  0  0  0  0999 V2000
    8.8270   -7.0288   18.4251 C   0  0  0  0  0  0  0  0  0  0  0  0
    9.1576   -4.6236   15.8860 O   0  0  0  0  0  0  0  0  0  0  0  0
    9.1509   -5.9108   17.7177 C   0  0  0  0  0  0  0  0  0  0  0  0
    3.6373   -9.5349   16.0582 N   0  0  0  0  0  0  0  0  0  0  0  0
    9.9275   -4.8001   18.0438 N   0  0  0  0  0  0  0  0  0  0  0  0
    8.5908   -5.7425   16.4412 C   0  0  0  0  0  0  0  0  0  0  0  0
   10.5993   -4.8981   21.6068 C   0  0  0  0  0  0  0  0  0  0  0  0
   10.4258   -3.0106   23.0998 C   0  0  0  0  0  0  0  0  0  0  0  0
   10.2148   -3.4364   25.4200 C   0  0  0  0  0  0  0  0  0  0  0  0
    9.7853   -1.1840   24.4927 C   0  0  0  0  0  0  0  0  0  0  0  0
    5.0276   -8.5227   17.5352 C   0  0  0  0  0  0  0  0  0  0  0  0
    9.8187   -2.0895   25.5800 C   0  0  0  0  0  0  0  0  0  0  0  0
    5.6473   -8.7216   15.3158 C   0  0  0  0  0  0  0  0  0  0  0  0
   10.7581   -3.1233   19.4720 N   0  0  0  0  0  0  0  0  0  0  0  0
    9.9571   -4.0573   16.8866 C   0  0  0  0  0  0  0  0  0  0  0  0
    7.6213   -6.5618   16.0087 C   0  0  0  0  0  0  0  0  0  0  0  0
   10.8583   -2.6527   20.7222 C   0  0  0  0  0  0  0  0  0  0  0  0
   10.6412   -3.5089   21.7936 C   0  0  0  0  0  0  0  0  0  0  0  0
   10.4972   -3.8968   24.1589 C   0  0  0  0  0  0  0  0  0  0  0  0
    5.9260   -8.2736   16.5517 C   0  0  0  0  0  0  0  0  0  0  0  0
    3.8816   -9.1166   17.2493 C   0  0  0  0  0  0  0  0  0  0  0  0
   10.1297   -1.6575   23.2324 C   0  0  0  0  0  0  0  0  0  0  0  0
    9.4684   -1.6929   26.7263 F   0  0  0  0  0  0  0  0  0  0  0  0
    7.7963   -7.7906   17.9837 C   0  0  0  0  0  0  0  0  0  0  0  0
   10.5884   -3.0725   16.7902 O   0  0  0  0  0  0  0  0  0  0  0  0
   10.4323   -5.3494   20.3516 C   0  0  0  0  0  0  0  0  0  0  0  0
    7.1156   -7.5454   16.8218 C   0  0  0  0  0  0  0  0  0  0  0  0
   10.3885   -4.4388   19.2773 C   0  0  0  0  0  0  0  0  0  0  0  0
    4.5160   -9.3822   15.0841 C   0  0  0  0  0  0  0  0  0  0  0  0
  1  3  4  0
  1 24  4  0
  2  6  4  0
  2 15  4  0
  3  5  4  0
  3  6  4  0
  4 21  4  0
  4 29  4  0
  5 15  4  0
  5 28  1  0
  6 16  4  0
  7 18  4  0
  7 26  4  0
  8 18  1  0
  8 19  4  0
  8 22  4  0
  9 12  4  0
  9 19  4  0
 10 12  4  0
 10 22  4  0
 11 20  4  0
 11 21  4  0
 12 23  1  0
 13 20  4  0
 13 29  4  0
 14 17  4  0
 14 28  4  0
 15 25  2  0
 16 27  4  0
 17 18  4  0
 20 27  1  0
 24 27  4  0
 26 28  4  0
M  END
$$$$

 Created by Python create_sdf_string function

 29 33  0  0  0  0  0  0  0  0999 V2000
    8.8270   -7.0288   18.4251 C   0  0  0  0  0  0  0  0  0  0  0  0
    9.1576   -4.6236   15.8860 O   0  0  0  0  0  0  0  0  0  0  0  0
    9.1509   -5.9108   17.7177 C   0  0  0  0  0  0  0  0  0  0  0  0
    3.6373   -9.5349   16.0582 N   0  0  0  0  0  0  0  0  0  0  0  0
    9.9275   -4.8001   18.0438 N   0  0  0  0  0  0  0  0  0  0  0  0
    8.5908   -5.7425   16.4412 C   0  0  0  0  0  0  0  0  0  0  0  0
   10.5993   -4.8981   21.6068 C   0  0  0  0  0  0  0  0  0  0  0  0
   10.4258   -3.0106   23.0998 C   0  0  0  0  0  0  0  0  0  0  0  0
   10.2148   -3.4364   25.4200 C   0  0  0  0  0  0  0  0  0  0  0  0
    9.7853   -1.1840   24.4927 C   0  0  0  0  0  0  0  0  0  0  0  0
    5.0276   -8.5227   17.5352 C   0  0  0  0  0  0  0  0  0  0  0  0
    9.8187   -2.0895   25.5800 C   0  0  0  0  0  0  0  0  0  0  0  0
    5.6473   -8.7216   15.3158 C   0  0  0  0  0  0  0  0  0  0  0  0
   10.7581   -3.1233   19.4720 N   0  0  0  0  0  0  0  0  0  0  0  0
    9.9571   -4.0573   16.8866 C   0  0  0  0  0  0  0  0  0  0  0  0
    7.6213   -6.5618   16.0087 C   0  0  0  0  0  0  0  0  0  0  0  0
   10.8583   -2.6527   20.7222 C   0  0  0  0  0  0  0  0  0  0  0  0
   10.6412   -3.5089   21.7936 C   0  0  0  0  0  0  0  0  0  0  0  0
   10.4972   -3.8968   24.1589 C   0  0  0  0  0  0  0  0  0  0  0  0
    5.9260   -8.2736   16.5517 C   0  0  0  0  0  0  0  0  0  0  0  0
    3.8816   -9.1166   17.2493 C   0  0  0  0  0  0  0  0  0  0  0  0
   10.1297   -1.6575   23.2324 C   0  0  0  0  0  0  0  0  0  0  0  0
    9.4684   -1.6929   26.7263 F   0  0  0  0  0  0  0  0  0  0  0  0
    7.7963   -7.7906   17.9837 C   0  0  0  0  0  0  0  0  0  0  0  0
   10.5884   -3.0725   16.7902 O   0  0  0  0  0  0  0  0  0  0  0  0
   10.4323   -5.3494   20.3516 C   0  0  0  0  0  0  0  0  0  0  0  0
    7.1156   -7.5454   16.8218 C   0  0  0  0  0  0  0  0  0  0  0  0
   10.3885   -4.4388   19.2773 C   0  0  0  0  0  0  0  0  0  0  0  0
    4.5160   -9.3822   15.0841 C   0  0  0  0  0  0  0  0  0  0  0  0
  1  3  4  0
  1 24  4  0
  2  6  4  0
  2 15  4  0
  3  5  4  0
  3  6  4  0
  4 21  4  0
  4 29  4  0
  5 15  4  0
  5 28  1  0
  6 16  4  0
  7 18  4  0
  7 26  4  0
  8 18  1  0
  8 19  4  0
  8 22  4  0
  9 12  4  0
  9 19  4  0
 10 12  4  0
 10 22  4  0
 11 20  4  0
 11 21  4  0
 12 23  1  0
 13 20  4  0
 13 29  4  0
 14 17  4  0
 14 28  4  0
 15 25  2  0
 16 27  4  0
 17 18  4  0
 20 27  1  0
 24 27  4  0
 26 28  4  0
M  END
$$$$

 Created by Python create_sdf_string function

 29 33  0  0  0  0  0  0  0  0999 V2000
    8.8270   -7.0288   18.4251 C   0  0  0  0  0  0  0  0  0  0  0  0
    9.1576   -4.6236   15.8860 O   0  0  0  0  0  0  0  0  0  0  0  0
    9.1509   -5.9108   17.7177 C   0  0  0  0  0  0  0  0  0  0  0  0
    3.6373   -9.5349   16.0582 N   0  0  0  0  0  0  0  0  0  0  0  0
    9.9275   -4.8001   18.0438 N   0  0  0  0  0  0  0  0  0  0  0  0
    8.5908   -5.7425   16.4412 C   0  0  0  0  0  0  0  0  0  0  0  0
   10.5993   -4.8981   21.6068 C   0  0  0  0  0  0  0  0  0  0  0  0
   10.4258   -3.0106   23.0998 C   0  0  0  0  0  0  0  0  0  0  0  0
   10.2148   -3.4364   25.4200 C   0  0  0  0  0  0  0  0  0  0  0  0
    9.7853   -1.1840   24.4927 C   0  0  0  0  0  0  0  0  0  0  0  0
    5.0276   -8.5227   17.5352 C   0  0  0  0  0  0  0  0  0  0  0  0
    9.8187   -2.0895   25.5800 C   0  0  0  0  0  0  0  0  0  0  0  0
    5.6473   -8.7216   15.3158 C   0  0  0  0  0  0  0  0  0  0  0  0
   10.7581   -3.1233   19.4720 N   0  0  0  0  0  0  0  0  0  0  0  0
    9.9571   -4.0573   16.8866 C   0  0  0  0  0  0  0  0  0  0  0  0
    7.6213   -6.5618   16.0087 C   0  0  0  0  0  0  0  0  0  0  0  0
   10.8583   -2.6527   20.7222 C   0  0  0  0  0  0  0  0  0  0  0  0
   10.6412   -3.5089   21.7936 C   0  0  0  0  0  0  0  0  0  0  0  0
   10.4972   -3.8968   24.1589 C   0  0  0  0  0  0  0  0  0  0  0  0
    5.9260   -8.2736   16.5517 C   0  0  0  0  0  0  0  0  0  0  0  0
    3.8816   -9.1166   17.2493 C   0  0  0  0  0  0  0  0  0  0  0  0
   10.1297   -1.6575   23.2324 C   0  0  0  0  0  0  0  0  0  0  0  0
    9.4684   -1.6929   26.7263 F   0  0  0  0  0  0  0  0  0  0  0  0
    7.7963   -7.7906   17.9837 C   0  0  0  0  0  0  0  0  0  0  0  0
   10.5884   -3.0725   16.7902 O   0  0  0  0  0  0  0  0  0  0  0  0
   10.4323   -5.3494   20.3516 C   0  0  0  0  0  0  0  0  0  0  0  0
    7.1156   -7.5454   16.8218 C   0  0  0  0  0  0  0  0  0  0  0  0
   10.3885   -4.4388   19.2773 C   0  0  0  0  0  0  0  0  0  0  0  0
    4.5160   -9.3822   15.0841 C   0  0  0  0  0  0  0  0  0  0  0  0
  1  3  4  0
  1 24  4  0
  2  6  4  0
  2 15  4  0
  3  5  4  0
  3  6  4  0
  4 21  4  0
  4 29  4  0
  5 15  4  0
  5 28  1  0
  6 16  4  0
  7 18  4  0
  7 26  4  0
  8 18  1  0
  8 19  4  0
  8 22  4  0
  9 12  4  0
  9 19  4  0
 10 12  4  0
 10 22  4  0
 11 20  4  0
 11 21  4  0
 12 23  1  0
 13 20  4  0
 13 29  4  0
 14 17  4  0
 14 28  4  0
 15 25  2  0
 16 27  4  0
 17 18  4  0
 20 27  1  0
 24 27  4  0
 26 28  4  0
M  END
$$$$

 Created by Python create_sdf_string function

 29 33  0  0  0  0  0  0  0  0999 V2000
    8.8270   -7.0288   18.4251 C   0  0  0  0  0  0  0  0  0  0  0  0
    9.1576   -4.6236   15.8860 O   0  0  0  0  0  0  0  0  0  0  0  0
    9.1509   -5.9108   17.7177 C   0  0  0  0  0  0  0  0  0  0  0  0
    3.6373   -9.5349   16.0582 N   0  0  0  0  0  0  0  0  0  0  0  0
    9.9275   -4.8001   18.0438 N   0  0  0  0  0  0  0  0  0  0  0  0
    8.5908   -5.7425   16.4412 C   0  0  0  0  0  0  0  0  0  0  0  0
   10.5993   -4.8981   21.6068 C   0  0  0  0  0  0  0  0  0  0  0  0
   10.4258   -3.0106   23.0998 C   0  0  0  0  0  0  0  0  0  0  0  0
   10.2148   -3.4364   25.4200 C   0  0  0  0  0  0  0  0  0  0  0  0
    9.7853   -1.1840   24.4927 C   0  0  0  0  0  0  0  0  0  0  0  0
    5.0276   -8.5227   17.5352 C   0  0  0  0  0  0  0  0  0  0  0  0
    9.8187   -2.0895   25.5800 C   0  0  0  0  0  0  0  0  0  0  0  0
    5.6473   -8.7216   15.3158 C   0  0  0  0  0  0  0  0  0  0  0  0
   10.7581   -3.1233   19.4720 N   0  0  0  0  0  0  0  0  0  0  0  0
    9.9571   -4.0573   16.8866 C   0  0  0  0  0  0  0  0  0  0  0  0
    7.6213   -6.5618   16.0087 C   0  0  0  0  0  0  0  0  0  0  0  0
   10.8583   -2.6527   20.7222 C   0  0  0  0  0  0  0  0  0  0  0  0
   10.6412   -3.5089   21.7936 C   0  0  0  0  0  0  0  0  0  0  0  0
   10.4972   -3.8968   24.1589 C   0  0  0  0  0  0  0  0  0  0  0  0
    5.9260   -8.2736   16.5517 C   0  0  0  0  0  0  0  0  0  0  0  0
    3.8816   -9.1166   17.2493 C   0  0  0  0  0  0  0  0  0  0  0  0
   10.1297   -1.6575   23.2324 C   0  0  0  0  0  0  0  0  0  0  0  0
    9.4684   -1.6929   26.7263 F   0  0  0  0  0  0  0  0  0  0  0  0
    7.7963   -7.7906   17.9837 C   0  0  0  0  0  0  0  0  0  0  0  0
   10.5884   -3.0725   16.7902 O   0  0  0  0  0  0  0  0  0  0  0  0
   10.4323   -5.3494   20.3516 C   0  0  0  0  0  0  0  0  0  0  0  0
    7.1156   -7.5454   16.8218 C   0  0  0  0  0  0  0  0  0  0  0  0
   10.3885   -4.4388   19.2773 C   0  0  0  0  0  0  0  0  0  0  0  0
    4.5160   -9.3822   15.0841 C   0  0  0  0  0  0  0  0  0  0  0  0
  1  3  4  0
  1 24  4  0
  2  6  4  0
  2 15  4  0
  3  5  4  0
  3  6  4  0
  4 21  4  0
  4 29  4  0
  5 15  4  0
  5 28  1  0
  6 16  4  0
  7 18  4  0
  7 26  4  0
  8 18  1  0
  8 19  4  0
  8 22  4  0
  9 12  4  0
  9 19  4  0
 10 12  4  0
 10 22  4  0
 11 20  4  0
 11 21  4  0
 12 23  1  0
 13 20  4  0
 13 29  4  0
 14 17  4  0
 14 28  4  0
 15 25  2  0
 16 27  4  0
 17 18  4  0
 20 27  1  0
 24 27  4  0
 26 28  4  0
M  END
$$$$

 Created by Python create_sdf_string function

 29 33  0  0  0  0  0  0  0  0999 V2000
    8.8270   -7.0288   18.4251 C   0  0  0  0  0  0  0  0  0  0  0  0
    9.1576   -4.6236   15.8860 O   0  0  0  0  0  0  0  0  0  0  0  0
    9.1509   -5.9108   17.7177 C   0  0  0  0  0  0  0  0  0  0  0  0
    3.6373   -9.5349   16.0582 N   0  0  0  0  0  0  0  0  0  0  0  0
    9.9275   -4.8001   18.0438 N   0  0  0  0  0  0  0  0  0  0  0  0
    8.5908   -5.7425   16.4412 C   0  0  0  0  0  0  0  0  0  0  0  0
   10.5993   -4.8981   21.6068 C   0  0  0  0  0  0  0  0  0  0  0  0
   10.4258   -3.0106   23.0998 C   0  0  0  0  0  0  0  0  0  0  0  0
   10.2148   -3.4364   25.4200 C   0  0  0  0  0  0  0  0  0  0  0  0
    9.7853   -1.1840   24.4927 C   0  0  0  0  0  0  0  0  0  0  0  0
    5.0276   -8.5227   17.5352 C   0  0  0  0  0  0  0  0  0  0  0  0
    9.8187   -2.0895   25.5800 C   0  0  0  0  0  0  0  0  0  0  0  0
    5.6473   -8.7216   15.3158 C   0  0  0  0  0  0  0  0  0  0  0  0
   10.7581   -3.1233   19.4720 N   0  0  0  0  0  0  0  0  0  0  0  0
    9.9571   -4.0573   16.8866 C   0  0  0  0  0  0  0  0  0  0  0  0
    7.6213   -6.5618   16.0087 C   0  0  0  0  0  0  0  0  0  0  0  0
   10.8583   -2.6527   20.7222 C   0  0  0  0  0  0  0  0  0  0  0  0
   10.6412   -3.5089   21.7936 C   0  0  0  0  0  0  0  0  0  0  0  0
   10.4972   -3.8968   24.1589 C   0  0  0  0  0  0  0  0  0  0  0  0
    5.9260   -8.2736   16.5517 C   0  0  0  0  0  0  0  0  0  0  0  0
    3.8816   -9.1166   17.2493 C   0  0  0  0  0  0  0  0  0  0  0  0
   10.1297   -1.6575   23.2324 C   0  0  0  0  0  0  0  0  0  0  0  0
    9.4684   -1.6929   26.7263 F   0  0  0  0  0  0  0  0  0  0  0  0
    7.7963   -7.7906   17.9837 C   0  0  0  0  0  0  0  0  0  0  0  0
   10.5884   -3.0725   16.7902 O   0  0  0  0  0  0  0  0  0  0  0  0
   10.4323   -5.3494   20.3516 C   0  0  0  0  0  0  0  0  0  0  0  0
    7.1156   -7.5454   16.8218 C   0  0  0  0  0  0  0  0  0  0  0  0
   10.3885   -4.4388   19.2773 C   0  0  0  0  0  0  0  0  0  0  0  0
    4.5160   -9.3822   15.0841 C   0  0  0  0  0  0  0  0  0  0  0  0
  1  3  4  0
  1 24  4  0
  2  6  4  0
  2 15  4  0
  3  5  4  0
  3  6  4  0
  4 21  4  0
  4 29  4  0
  5 15  4  0
  5 28  1  0
  6 16  4  0
  7 18  4  0
  7 26  4  0
  8 18  1  0
  8 19  4  0
  8 22  4  0
  9 12  4  0
  9 19  4  0
 10 12  4  0
 10 22  4  0
 11 20  4  0
 11 21  4  0
 12 23  1  0
 13 20  4  0
 13 29  4  0
 14 17  4  0
 14 28  4  0
 15 25  2  0
 16 27  4  0
 17 18  4  0
 20 27  1  0
 24 27  4  0
 26 28  4  0
M  END
$$$$

 Created by Python create_sdf_string function

 29 33  0  0  0  0  0  0  0  0999 V2000
    8.8270   -7.0288   18.4251 C   0  0  0  0  0  0  0  0  0  0  0  0
    9.1576   -4.6236   15.8860 O   0  0  0  0  0  0  0  0  0  0  0  0
    9.1509   -5.9108   17.7177 C   0  0  0  0  0  0  0  0  0  0  0  0
    3.6373   -9.5349   16.0582 N   0  0  0  0  0  0  0  0  0  0  0  0
    9.9275   -4.8001   18.0438 N   0  0  0  0  0  0  0  0  0  0  0  0
    8.5908   -5.7425   16.4412 C   0  0  0  0  0  0  0  0  0  0  0  0
   10.5993   -4.8981   21.6068 C   0  0  0  0  0  0  0  0  0  0  0  0
   10.4258   -3.0106   23.0998 C   0  0  0  0  0  0  0  0  0  0  0  0
   10.2148   -3.4364   25.4200 C   0  0  0  0  0  0  0  0  0  0  0  0
    9.7853   -1.1840   24.4927 C   0  0  0  0  0  0  0  0  0  0  0  0
    5.0276   -8.5227   17.5352 C   0  0  0  0  0  0  0  0  0  0  0  0
    9.8187   -2.0895   25.5800 C   0  0  0  0  0  0  0  0  0  0  0  0
    5.6473   -8.7216   15.3158 C   0  0  0  0  0  0  0  0  0  0  0  0
   10.7581   -3.1233   19.4720 N   0  0  0  0  0  0  0  0  0  0  0  0
    9.9571   -4.0573   16.8866 C   0  0  0  0  0  0  0  0  0  0  0  0
    7.6213   -6.5618   16.0087 C   0  0  0  0  0  0  0  0  0  0  0  0
   10.8583   -2.6527   20.7222 C   0  0  0  0  0  0  0  0  0  0  0  0
   10.6412   -3.5089   21.7936 C   0  0  0  0  0  0  0  0  0  0  0  0
   10.4972   -3.8968   24.1589 C   0  0  0  0  0  0  0  0  0  0  0  0
    5.9260   -8.2736   16.5517 C   0  0  0  0  0  0  0  0  0  0  0  0
    3.8816   -9.1166   17.2493 C   0  0  0  0  0  0  0  0  0  0  0  0
   10.1297   -1.6575   23.2324 C   0  0  0  0  0  0  0  0  0  0  0  0
    9.4684   -1.6929   26.7263 F   0  0  0  0  0  0  0  0  0  0  0  0
    7.7963   -7.7906   17.9837 C   0  0  0  0  0  0  0  0  0  0  0  0
   10.5884   -3.0725   16.7902 O   0  0  0  0  0  0  0  0  0  0  0  0
   10.4323   -5.3494   20.3516 C   0  0  0  0  0  0  0  0  0  0  0  0
    7.1156   -7.5454   16.8218 C   0  0  0  0  0  0  0  0  0  0  0  0
   10.3885   -4.4388   19.2773 C   0  0  0  0  0  0  0  0  0  0  0  0
    4.5160   -9.3822   15.0841 C   0  0  0  0  0  0  0  0  0  0  0  0
  1  3  4  0
  1 24  4  0
  2  6  4  0
  2 15  4  0
  3  5  4  0
  3  6  4  0
  4 21  4  0
  4 29  4  0
  5 15  4  0
  5 28  1  0
  6 16  4  0
  7 18  4  0
  7 26  4  0
  8 18  1  0
  8 19  4  0
  8 22  4  0
  9 12  4  0
  9 19  4  0
 10 12  4  0
 10 22  4  0
 11 20  4  0
 11 21  4  0
 12 23  1  0
 13 20  4  0
 13 29  4  0
 14 17  4  0
 14 28  4  0
 15 25  2  0
 16 27  4  0
 17 18  4  0
 20 27  1  0
 24 27  4  0
 26 28  4  0
M  END
$$$$

 Created by Python create_sdf_string function

 29 33  0  0  0  0  0  0  0  0999 V2000
    8.8270   -7.0288   18.4251 C   0  0  0  0  0  0  0  0  0  0  0  0
    9.1576   -4.6236   15.8860 O   0  0  0  0  0  0  0  0  0  0  0  0
    9.1509   -5.9108   17.7177 C   0  0  0  0  0  0  0  0  0  0  0  0
    3.6373   -9.5349   16.0582 N   0  0  0  0  0  0  0  0  0  0  0  0
    9.9275   -4.8001   18.0438 N   0  0  0  0  0  0  0  0  0  0  0  0
    8.5908   -5.7425   16.4412 C   0  0  0  0  0  0  0  0  0  0  0  0
   10.5993   -4.8981   21.6068 C   0  0  0  0  0  0  0  0  0  0  0  0
   10.4258   -3.0106   23.0998 C   0  0  0  0  0  0  0  0  0  0  0  0
   10.2148   -3.4364   25.4200 C   0  0  0  0  0  0  0  0  0  0  0  0
    9.7853   -1.1840   24.4927 C   0  0  0  0  0  0  0  0  0  0  0  0
    5.0276   -8.5227   17.5352 C   0  0  0  0  0  0  0  0  0  0  0  0
    9.8187   -2.0895   25.5800 C   0  0  0  0  0  0  0  0  0  0  0  0
    5.6473   -8.7216   15.3158 C   0  0  0  0  0  0  0  0  0  0  0  0
   10.7581   -3.1233   19.4720 N   0  0  0  0  0  0  0  0  0  0  0  0
    9.9571   -4.0573   16.8866 C   0  0  0  0  0  0  0  0  0  0  0  0
    7.6213   -6.5618   16.0087 C   0  0  0  0  0  0  0  0  0  0  0  0
   10.8583   -2.6527   20.7222 C   0  0  0  0  0  0  0  0  0  0  0  0
   10.6412   -3.5089   21.7936 C   0  0  0  0  0  0  0  0  0  0  0  0
   10.4972   -3.8968   24.1589 C   0  0  0  0  0  0  0  0  0  0  0  0
    5.9260   -8.2736   16.5517 C   0  0  0  0  0  0  0  0  0  0  0  0
    3.8816   -9.1166   17.2493 C   0  0  0  0  0  0  0  0  0  0  0  0
   10.1297   -1.6575   23.2324 C   0  0  0  0  0  0  0  0  0  0  0  0
    9.4684   -1.6929   26.7263 F   0  0  0  0  0  0  0  0  0  0  0  0
    7.7963   -7.7906   17.9837 C   0  0  0  0  0  0  0  0  0  0  0  0
   10.5884   -3.0725   16.7902 O   0  0  0  0  0  0  0  0  0  0  0  0
   10.4323   -5.3494   20.3516 C   0  0  0  0  0  0  0  0  0  0  0  0
    7.1156   -7.5454   16.8218 C   0  0  0  0  0  0  0  0  0  0  0  0
   10.3885   -4.4388   19.2773 C   0  0  0  0  0  0  0  0  0  0  0  0
    4.5160   -9.3822   15.0841 C   0  0  0  0  0  0  0  0  0  0  0  0
  1  3  4  0
  1 24  4  0
  2  6  4  0
  2 15  4  0
  3  5  4  0
  3  6  4  0
  4 21  4  0
  4 29  4  0
  5 15  4  0
  5 28  1  0
  6 16  4  0
  7 18  4  0
  7 26  4  0
  8 18  1  0
  8 19  4  0
  8 22  4  0
  9 12  4  0
  9 19  4  0
 10 12  4  0
 10 22  4  0
 11 20  4  0
 11 21  4  0
 12 23  1  0
 13 20  4  0
 13 29  4  0
 14 17  4  0
 14 28  4  0
 15 25  2  0
 16 27  4  0
 17 18  4  0
 20 27  1  0
 24 27  4  0
 26 28  4  0
M  END
$$$$

 Created by Python create_sdf_string function

 29 33  0  0  0  0  0  0  0  0999 V2000
    8.8270   -7.0288   18.4251 C   0  0  0  0  0  0  0  0  0  0  0  0
    9.1576   -4.6236   15.8860 O   0  0  0  0  0  0  0  0  0  0  0  0
    9.1509   -5.9108   17.7177 C   0  0  0  0  0  0  0  0  0  0  0  0
    3.6373   -9.5349   16.0582 N   0  0  0  0  0  0  0  0  0  0  0  0
    9.9275   -4.8001   18.0438 N   0  0  0  0  0  0  0  0  0  0  0  0
    8.5908   -5.7425   16.4412 C   0  0  0  0  0  0  0  0  0  0  0  0
   10.5993   -4.8981   21.6068 C   0  0  0  0  0  0  0  0  0  0  0  0
   10.4258   -3.0106   23.0998 C   0  0  0  0  0  0  0  0  0  0  0  0
   10.2148   -3.4364   25.4200 C   0  0  0  0  0  0  0  0  0  0  0  0
    9.7853   -1.1840   24.4927 C   0  0  0  0  0  0  0  0  0  0  0  0
    5.0276   -8.5227   17.5352 C   0  0  0  0  0  0  0  0  0  0  0  0
    9.8187   -2.0895   25.5800 C   0  0  0  0  0  0  0  0  0  0  0  0
    5.6473   -8.7216   15.3158 C   0  0  0  0  0  0  0  0  0  0  0  0
   10.7581   -3.1233   19.4720 N   0  0  0  0  0  0  0  0  0  0  0  0
    9.9571   -4.0573   16.8866 C   0  0  0  0  0  0  0  0  0  0  0  0
    7.6213   -6.5618   16.0087 C   0  0  0  0  0  0  0  0  0  0  0  0
   10.8583   -2.6527   20.7222 C   0  0  0  0  0  0  0  0  0  0  0  0
   10.6412   -3.5089   21.7936 C   0  0  0  0  0  0  0  0  0  0  0  0
   10.4972   -3.8968   24.1589 C   0  0  0  0  0  0  0  0  0  0  0  0
    5.9260   -8.2736   16.5517 C   0  0  0  0  0  0  0  0  0  0  0  0
    3.8816   -9.1166   17.2493 C   0  0  0  0  0  0  0  0  0  0  0  0
   10.1297   -1.6575   23.2324 C   0  0  0  0  0  0  0  0  0  0  0  0
    9.4684   -1.6929   26.7263 F   0  0  0  0  0  0  0  0  0  0  0  0
    7.7963   -7.7906   17.9837 C   0  0  0  0  0  0  0  0  0  0  0  0
   10.5884   -3.0725   16.7902 O   0  0  0  0  0  0  0  0  0  0  0  0
   10.4323   -5.3494   20.3516 C   0  0  0  0  0  0  0  0  0  0  0  0
    7.1156   -7.5454   16.8218 C   0  0  0  0  0  0  0  0  0  0  0  0
   10.3885   -4.4388   19.2773 C   0  0  0  0  0  0  0  0  0  0  0  0
    4.5160   -9.3822   15.0841 C   0  0  0  0  0  0  0  0  0  0  0  0
  1  3  4  0
  1 24  4  0
  2  6  4  0
  2 15  4  0
  3  5  4  0
  3  6  4  0
  4 21  4  0
  4 29  4  0
  5 15  4  0
  5 28  1  0
  6 16  4  0
  7 18  4  0
  7 26  4  0
  8 18  1  0
  8 19  4  0
  8 22  4  0
  9 12  4  0
  9 19  4  0
 10 12  4  0
 10 22  4  0
 11 20  4  0
 11 21  4  0
 12 23  1  0
 13 20  4  0
 13 29  4  0
 14 17  4  0
 14 28  4  0
 15 25  2  0
 16 27  4  0
 17 18  4  0
 20 27  1  0
 24 27  4  0
 26 28  4  0
M  END
$$$$

 Created by Python create_sdf_string function

 29 33  0  0  0  0  0  0  0  0999 V2000
    8.8270   -7.0288   18.4251 C   0  0  0  0  0  0  0  0  0  0  0  0
    9.1576   -4.6236   15.8860 O   0  0  0  0  0  0  0  0  0  0  0  0
    9.1509   -5.9108   17.7177 C   0  0  0  0  0  0  0  0  0  0  0  0
    3.6373   -9.5349   16.0582 N   0  0  0  0  0  0  0  0  0  0  0  0
    9.9275   -4.8001   18.0438 N   0  0  0  0  0  0  0  0  0  0  0  0
    8.5908   -5.7425   16.4412 C   0  0  0  0  0  0  0  0  0  0  0  0
   10.5993   -4.8981   21.6068 C   0  0  0  0  0  0  0  0  0  0  0  0
   10.4258   -3.0106   23.0998 C   0  0  0  0  0  0  0  0  0  0  0  0
   10.2148   -3.4364   25.4200 C   0  0  0  0  0  0  0  0  0  0  0  0
    9.7853   -1.1840   24.4927 C   0  0  0  0  0  0  0  0  0  0  0  0
    5.0276   -8.5227   17.5352 C   0  0  0  0  0  0  0  0  0  0  0  0
    9.8187   -2.0895   25.5800 C   0  0  0  0  0  0  0  0  0  0  0  0
    5.6473   -8.7216   15.3158 C   0  0  0  0  0  0  0  0  0  0  0  0
   10.7581   -3.1233   19.4720 N   0  0  0  0  0  0  0  0  0  0  0  0
    9.9571   -4.0573   16.8866 C   0  0  0  0  0  0  0  0  0  0  0  0
    7.6213   -6.5618   16.0087 C   0  0  0  0  0  0  0  0  0  0  0  0
   10.8583   -2.6527   20.7222 C   0  0  0  0  0  0  0  0  0  0  0  0
   10.6412   -3.5089   21.7936 C   0  0  0  0  0  0  0  0  0  0  0  0
   10.4972   -3.8968   24.1589 C   0  0  0  0  0  0  0  0  0  0  0  0
    5.9260   -8.2736   16.5517 C   0  0  0  0  0  0  0  0  0  0  0  0
    3.8816   -9.1166   17.2493 C   0  0  0  0  0  0  0  0  0  0  0  0
   10.1297   -1.6575   23.2324 C   0  0  0  0  0  0  0  0  0  0  0  0
    9.4684   -1.6929   26.7263 F   0  0  0  0  0  0  0  0  0  0  0  0
    7.7963   -7.7906   17.9837 C   0  0  0  0  0  0  0  0  0  0  0  0
   10.5884   -3.0725   16.7902 O   0  0  0  0  0  0  0  0  0  0  0  0
   10.4323   -5.3494   20.3516 C   0  0  0  0  0  0  0  0  0  0  0  0
    7.1156   -7.5454   16.8218 C   0  0  0  0  0  0  0  0  0  0  0  0
   10.3885   -4.4388   19.2773 C   0  0  0  0  0  0  0  0  0  0  0  0
    4.5160   -9.3822   15.0841 C   0  0  0  0  0  0  0  0  0  0  0  0
  1  3  4  0
  1 24  4  0
  2  6  4  0
  2 15  4  0
  3  5  4  0
  3  6  4  0
  4 21  4  0
  4 29  4  0
  5 15  4  0
  5 28  1  0
  6 16  4  0
  7 18  4  0
  7 26  4  0
  8 18  1  0
  8 19  4  0
  8 22  4  0
  9 12  4  0
  9 19  4  0
 10 12  4  0
 10 22  4  0
 11 20  4  0
 11 21  4  0
 12 23  1  0
 13 20  4  0
 13 29  4  0
 14 17  4  0
 14 28  4  0
 15 25  2  0
 16 27  4  0
 17 18  4  0
 20 27  1  0
 24 27  4  0
 26 28  4  0
M  END
$$$$

 Created by Python create_sdf_string function

 29 33  0  0  0  0  0  0  0  0999 V2000
    8.8270   -7.0288   18.4251 C   0  0  0  0  0  0  0  0  0  0  0  0
    9.1576   -4.6236   15.8860 O   0  0  0  0  0  0  0  0  0  0  0  0
    9.1509   -5.9108   17.7177 C   0  0  0  0  0  0  0  0  0  0  0  0
    3.6373   -9.5349   16.0582 N   0  0  0  0  0  0  0  0  0  0  0  0
    9.9275   -4.8001   18.0438 N   0  0  0  0  0  0  0  0  0  0  0  0
    8.5908   -5.7425   16.4412 C   0  0  0  0  0  0  0  0  0  0  0  0
   10.5993   -4.8981   21.6068 C   0  0  0  0  0  0  0  0  0  0  0  0
   10.4258   -3.0106   23.0998 C   0  0  0  0  0  0  0  0  0  0  0  0
   10.2148   -3.4364   25.4200 C   0  0  0  0  0  0  0  0  0  0  0  0
    9.7853   -1.1840   24.4927 C   0  0  0  0  0  0  0  0  0  0  0  0
    5.0276   -8.5227   17.5352 C   0  0  0  0  0  0  0  0  0  0  0  0
    9.8187   -2.0895   25.5800 C   0  0  0  0  0  0  0  0  0  0  0  0
    5.6473   -8.7216   15.3158 C   0  0  0  0  0  0  0  0  0  0  0  0
   10.7581   -3.1233   19.4720 N   0  0  0  0  0  0  0  0  0  0  0  0
    9.9571   -4.0573   16.8866 C   0  0  0  0  0  0  0  0  0  0  0  0
    7.6213   -6.5618   16.0087 C   0  0  0  0  0  0  0  0  0  0  0  0
   10.8583   -2.6527   20.7222 C   0  0  0  0  0  0  0  0  0  0  0  0
   10.6412   -3.5089   21.7936 C   0  0  0  0  0  0  0  0  0  0  0  0
   10.4972   -3.8968   24.1589 C   0  0  0  0  0  0  0  0  0  0  0  0
    5.9260   -8.2736   16.5517 C   0  0  0  0  0  0  0  0  0  0  0  0
    3.8816   -9.1166   17.2493 C   0  0  0  0  0  0  0  0  0  0  0  0
   10.1297   -1.6575   23.2324 C   0  0  0  0  0  0  0  0  0  0  0  0
    9.4684   -1.6929   26.7263 F   0  0  0  0  0  0  0  0  0  0  0  0
    7.7963   -7.7906   17.9837 C   0  0  0  0  0  0  0  0  0  0  0  0
   10.5884   -3.0725   16.7902 O   0  0  0  0  0  0  0  0  0  0  0  0
   10.4323   -5.3494   20.3516 C   0  0  0  0  0  0  0  0  0  0  0  0
    7.1156   -7.5454   16.8218 C   0  0  0  0  0  0  0  0  0  0  0  0
   10.3885   -4.4388   19.2773 C   0  0  0  0  0  0  0  0  0  0  0  0
    4.5160   -9.3822   15.0841 C   0  0  0  0  0  0  0  0  0  0  0  0
  1  3  4  0
  1 24  4  0
  2  6  4  0
  2 15  4  0
  3  5  4  0
  3  6  4  0
  4 21  4  0
  4 29  4  0
  5 15  4  0
  5 28  1  0
  6 16  4  0
  7 18  4  0
  7 26  4  0
  8 18  1  0
  8 19  4  0
  8 22  4  0
  9 12  4  0
  9 19  4  0
 10 12  4  0
 10 22  4  0
 11 20  4  0
 11 21  4  0
 12 23  1  0
 13 20  4  0
 13 29  4  0
 14 17  4  0
 14 28  4  0
 15 25  2  0
 16 27  4  0
 17 18  4  0
 20 27  1  0
 24 27  4  0
 26 28  4  0
M  END
$$$$

 Created by Python create_sdf_string function

 29 33  0  0  0  0  0  0  0  0999 V2000
    8.8270   -7.0288   18.4251 C   0  0  0  0  0  0  0  0  0  0  0  0
    9.1576   -4.6236   15.8860 O   0  0  0  0  0  0  0  0  0  0  0  0
    9.1509   -5.9108   17.7177 C   0  0  0  0  0  0  0  0  0  0  0  0
    3.6373   -9.5349   16.0582 N   0  0  0  0  0  0  0  0  0  0  0  0
    9.9275   -4.8001   18.0438 N   0  0  0  0  0  0  0  0  0  0  0  0
    8.5908   -5.7425   16.4412 C   0  0  0  0  0  0  0  0  0  0  0  0
   10.5993   -4.8981   21.6068 C   0  0  0  0  0  0  0  0  0  0  0  0
   10.4258   -3.0106   23.0998 C   0  0  0  0  0  0  0  0  0  0  0  0
   10.2148   -3.4364   25.4200 C   0  0  0  0  0  0  0  0  0  0  0  0
    9.7853   -1.1840   24.4927 C   0  0  0  0  0  0  0  0  0  0  0  0
    5.0276   -8.5227   17.5352 C   0  0  0  0  0  0  0  0  0  0  0  0
    9.8187   -2.0895   25.5800 C   0  0  0  0  0  0  0  0  0  0  0  0
    5.6473   -8.7216   15.3158 C   0  0  0  0  0  0  0  0  0  0  0  0
   10.7581   -3.1233   19.4720 N   0  0  0  0  0  0  0  0  0  0  0  0
    9.9571   -4.0573   16.8866 C   0  0  0  0  0  0  0  0  0  0  0  0
    7.6213   -6.5618   16.0087 C   0  0  0  0  0  0  0  0  0  0  0  0
   10.8583   -2.6527   20.7222 C   0  0  0  0  0  0  0  0  0  0  0  0
   10.6412   -3.5089   21.7936 C   0  0  0  0  0  0  0  0  0  0  0  0
   10.4972   -3.8968   24.1589 C   0  0  0  0  0  0  0  0  0  0  0  0
    5.9260   -8.2736   16.5517 C   0  0  0  0  0  0  0  0  0  0  0  0
    3.8816   -9.1166   17.2493 C   0  0  0  0  0  0  0  0  0  0  0  0
   10.1297   -1.6575   23.2324 C   0  0  0  0  0  0  0  0  0  0  0  0
    9.4684   -1.6929   26.7263 F   0  0  0  0  0  0  0  0  0  0  0  0
    7.7963   -7.7906   17.9837 C   0  0  0  0  0  0  0  0  0  0  0  0
   10.5884   -3.0725   16.7902 O   0  0  0  0  0  0  0  0  0  0  0  0
   10.4323   -5.3494   20.3516 C   0  0  0  0  0  0  0  0  0  0  0  0
    7.1156   -7.5454   16.8218 C   0  0  0  0  0  0  0  0  0  0  0  0
   10.3885   -4.4388   19.2773 C   0  0  0  0  0  0  0  0  0  0  0  0
    4.5160   -9.3822   15.0841 C   0  0  0  0  0  0  0  0  0  0  0  0
  1  3  4  0
  1 24  4  0
  2  6  4  0
  2 15  4  0
  3  5  4  0
  3  6  4  0
  4 21  4  0
  4 29  4  0
  5 15  4  0
  5 28  1  0
  6 16  4  0
  7 18  4  0
  7 26  4  0
  8 18  1  0
  8 19  4  0
  8 22  4  0
  9 12  4  0
  9 19  4  0
 10 12  4  0
 10 22  4  0
 11 20  4  0
 11 21  4  0
 12 23  1  0
 13 20  4  0
 13 29  4  0
 14 17  4  0
 14 28  4  0
 15 25  2  0
 16 27  4  0
 17 18  4  0
 20 27  1  0
 24 27  4  0
 26 28  4  0
M  END
$$$$

 Created by Python create_sdf_string function

 29 33  0  0  0  0  0  0  0  0999 V2000
    8.8270   -7.0288   18.4251 C   0  0  0  0  0  0  0  0  0  0  0  0
    9.1576   -4.6236   15.8860 O   0  0  0  0  0  0  0  0  0  0  0  0
    9.1509   -5.9108   17.7177 C   0  0  0  0  0  0  0  0  0  0  0  0
    3.6373   -9.5349   16.0582 N   0  0  0  0  0  0  0  0  0  0  0  0
    9.9275   -4.8001   18.0438 N   0  0  0  0  0  0  0  0  0  0  0  0
    8.5908   -5.7425   16.4412 C   0  0  0  0  0  0  0  0  0  0  0  0
   10.5993   -4.8981   21.6068 C   0  0  0  0  0  0  0  0  0  0  0  0
   10.4258   -3.0106   23.0998 C   0  0  0  0  0  0  0  0  0  0  0  0
   10.2148   -3.4364   25.4200 C   0  0  0  0  0  0  0  0  0  0  0  0
    9.7853   -1.1840   24.4927 C   0  0  0  0  0  0  0  0  0  0  0  0
    5.0276   -8.5227   17.5352 C   0  0  0  0  0  0  0  0  0  0  0  0
    9.8187   -2.0895   25.5800 C   0  0  0  0  0  0  0  0  0  0  0  0
    5.6473   -8.7216   15.3158 C   0  0  0  0  0  0  0  0  0  0  0  0
   10.7581   -3.1233   19.4720 N   0  0  0  0  0  0  0  0  0  0  0  0
    9.9571   -4.0573   16.8866 C   0  0  0  0  0  0  0  0  0  0  0  0
    7.6213   -6.5618   16.0087 C   0  0  0  0  0  0  0  0  0  0  0  0
   10.8583   -2.6527   20.7222 C   0  0  0  0  0  0  0  0  0  0  0  0
   10.6412   -3.5089   21.7936 C   0  0  0  0  0  0  0  0  0  0  0  0
   10.4972   -3.8968   24.1589 C   0  0  0  0  0  0  0  0  0  0  0  0
    5.9260   -8.2736   16.5517 C   0  0  0  0  0  0  0  0  0  0  0  0
    3.8816   -9.1166   17.2493 C   0  0  0  0  0  0  0  0  0  0  0  0
   10.1297   -1.6575   23.2324 C   0  0  0  0  0  0  0  0  0  0  0  0
    9.4684   -1.6929   26.7263 F   0  0  0  0  0  0  0  0  0  0  0  0
    7.7963   -7.7906   17.9837 C   0  0  0  0  0  0  0  0  0  0  0  0
   10.5884   -3.0725   16.7902 O   0  0  0  0  0  0  0  0  0  0  0  0
   10.4323   -5.3494   20.3516 C   0  0  0  0  0  0  0  0  0  0  0  0
    7.1156   -7.5454   16.8218 C   0  0  0  0  0  0  0  0  0  0  0  0
   10.3885   -4.4388   19.2773 C   0  0  0  0  0  0  0  0  0  0  0  0
    4.5160   -9.3822   15.0841 C   0  0  0  0  0  0  0  0  0  0  0  0
  1  3  4  0
  1 24  4  0
  2  6  4  0
  2 15  4  0
  3  5  4  0
  3  6  4  0
  4 21  4  0
  4 29  4  0
  5 15  4  0
  5 28  1  0
  6 16  4  0
  7 18  4  0
  7 26  4  0
  8 18  1  0
  8 19  4  0
  8 22  4  0
  9 12  4  0
  9 19  4  0
 10 12  4  0
 10 22  4  0
 11 20  4  0
 11 21  4  0
 12 23  1  0
 13 20  4  0
 13 29  4  0
 14 17  4  0
 14 28  4  0
 15 25  2  0
 16 27  4  0
 17 18  4  0
 20 27  1  0
 24 27  4  0
 26 28  4  0
M  END
$$$$

 Created by Python create_sdf_string function

 29 33  0  0  0  0  0  0  0  0999 V2000
    8.8270   -7.0288   18.4251 C   0  0  0  0  0  0  0  0  0  0  0  0
    9.1576   -4.6236   15.8860 O   0  0  0  0  0  0  0  0  0  0  0  0
    9.1509   -5.9108   17.7177 C   0  0  0  0  0  0  0  0  0  0  0  0
    3.6373   -9.5349   16.0582 N   0  0  0  0  0  0  0  0  0  0  0  0
    9.9275   -4.8001   18.0438 N   0  0  0  0  0  0  0  0  0  0  0  0
    8.5908   -5.7425   16.4412 C   0  0  0  0  0  0  0  0  0  0  0  0
   10.5993   -4.8981   21.6068 C   0  0  0  0  0  0  0  0  0  0  0  0
   10.4258   -3.0106   23.0998 C   0  0  0  0  0  0  0  0  0  0  0  0
   10.2148   -3.4364   25.4200 C   0  0  0  0  0  0  0  0  0  0  0  0
    9.7853   -1.1840   24.4927 C   0  0  0  0  0  0  0  0  0  0  0  0
    5.0276   -8.5227   17.5352 C   0  0  0  0  0  0  0  0  0  0  0  0
    9.8187   -2.0895   25.5800 C   0  0  0  0  0  0  0  0  0  0  0  0
    5.6473   -8.7216   15.3158 C   0  0  0  0  0  0  0  0  0  0  0  0
   10.7581   -3.1233   19.4720 N   0  0  0  0  0  0  0  0  0  0  0  0
    9.9571   -4.0573   16.8866 C   0  0  0  0  0  0  0  0  0  0  0  0
    7.6213   -6.5618   16.0087 C   0  0  0  0  0  0  0  0  0  0  0  0
   10.8583   -2.6527   20.7222 C   0  0  0  0  0  0  0  0  0  0  0  0
   10.6412   -3.5089   21.7936 C   0  0  0  0  0  0  0  0  0  0  0  0
   10.4972   -3.8968   24.1589 C   0  0  0  0  0  0  0  0  0  0  0  0
    5.9260   -8.2736   16.5517 C   0  0  0  0  0  0  0  0  0  0  0  0
    3.8816   -9.1166   17.2493 C   0  0  0  0  0  0  0  0  0  0  0  0
   10.1297   -1.6575   23.2324 C   0  0  0  0  0  0  0  0  0  0  0  0
    9.4684   -1.6929   26.7263 F   0  0  0  0  0  0  0  0  0  0  0  0
    7.7963   -7.7906   17.9837 C   0  0  0  0  0  0  0  0  0  0  0  0
   10.5884   -3.0725   16.7902 O   0  0  0  0  0  0  0  0  0  0  0  0
   10.4323   -5.3494   20.3516 C   0  0  0  0  0  0  0  0  0  0  0  0
    7.1156   -7.5454   16.8218 C   0  0  0  0  0  0  0  0  0  0  0  0
   10.3885   -4.4388   19.2773 C   0  0  0  0  0  0  0  0  0  0  0  0
    4.5160   -9.3822   15.0841 C   0  0  0  0  0  0  0  0  0  0  0  0
  1  3  4  0
  1 24  4  0
  2  6  4  0
  2 15  4  0
  3  5  4  0
  3  6  4  0
  4 21  4  0
  4 29  4  0
  5 15  4  0
  5 28  1  0
  6 16  4  0
  7 18  4  0
  7 26  4  0
  8 18  1  0
  8 19  4  0
  8 22  4  0
  9 12  4  0
  9 19  4  0
 10 12  4  0
 10 22  4  0
 11 20  4  0
 11 21  4  0
 12 23  1  0
 13 20  4  0
 13 29  4  0
 14 17  4  0
 14 28  4  0
 15 25  2  0
 16 27  4  0
 17 18  4  0
 20 27  1  0
 24 27  4  0
 26 28  4  0
M  END
$$$$

 Created by Python create_sdf_string function

 29 33  0  0  0  0  0  0  0  0999 V2000
    8.8270   -7.0288   18.4251 C   0  0  0  0  0  0  0  0  0  0  0  0
    9.1576   -4.6236   15.8860 O   0  0  0  0  0  0  0  0  0  0  0  0
    9.1509   -5.9108   17.7177 C   0  0  0  0  0  0  0  0  0  0  0  0
    3.6373   -9.5349   16.0582 N   0  0  0  0  0  0  0  0  0  0  0  0
    9.9275   -4.8001   18.0438 N   0  0  0  0  0  0  0  0  0  0  0  0
    8.5908   -5.7425   16.4412 C   0  0  0  0  0  0  0  0  0  0  0  0
   10.5993   -4.8981   21.6068 C   0  0  0  0  0  0  0  0  0  0  0  0
   10.4258   -3.0106   23.0998 C   0  0  0  0  0  0  0  0  0  0  0  0
   10.2148   -3.4364   25.4200 C   0  0  0  0  0  0  0  0  0  0  0  0
    9.7853   -1.1840   24.4927 C   0  0  0  0  0  0  0  0  0  0  0  0
    5.0276   -8.5227   17.5352 C   0  0  0  0  0  0  0  0  0  0  0  0
    9.8187   -2.0895   25.5800 C   0  0  0  0  0  0  0  0  0  0  0  0
    5.6473   -8.7216   15.3158 C   0  0  0  0  0  0  0  0  0  0  0  0
   10.7581   -3.1233   19.4720 N   0  0  0  0  0  0  0  0  0  0  0  0
    9.9571   -4.0573   16.8866 C   0  0  0  0  0  0  0  0  0  0  0  0
    7.6213   -6.5618   16.0087 C   0  0  0  0  0  0  0  0  0  0  0  0
   10.8583   -2.6527   20.7222 C   0  0  0  0  0  0  0  0  0  0  0  0
   10.6412   -3.5089   21.7936 C   0  0  0  0  0  0  0  0  0  0  0  0
   10.4972   -3.8968   24.1589 C   0  0  0  0  0  0  0  0  0  0  0  0
    5.9260   -8.2736   16.5517 C   0  0  0  0  0  0  0  0  0  0  0  0
    3.8816   -9.1166   17.2493 C   0  0  0  0  0  0  0  0  0  0  0  0
   10.1297   -1.6575   23.2324 C   0  0  0  0  0  0  0  0  0  0  0  0
    9.4684   -1.6929   26.7263 F   0  0  0  0  0  0  0  0  0  0  0  0
    7.7963   -7.7906   17.9837 C   0  0  0  0  0  0  0  0  0  0  0  0
   10.5884   -3.0725   16.7902 O   0  0  0  0  0  0  0  0  0  0  0  0
   10.4323   -5.3494   20.3516 C   0  0  0  0  0  0  0  0  0  0  0  0
    7.1156   -7.5454   16.8218 C   0  0  0  0  0  0  0  0  0  0  0  0
   10.3885   -4.4388   19.2773 C   0  0  0  0  0  0  0  0  0  0  0  0
    4.5160   -9.3822   15.0841 C   0  0  0  0  0  0  0  0  0  0  0  0
  1  3  4  0
  1 24  4  0
  2  6  4  0
  2 15  4  0
  3  5  4  0
  3  6  4  0
  4 21  4  0
  4 29  4  0
  5 15  4  0
  5 28  1  0
  6 16  4  0
  7 18  4  0
  7 26  4  0
  8 18  1  0
  8 19  4  0
  8 22  4  0
  9 12  4  0
  9 19  4  0
 10 12  4  0
 10 22  4  0
 11 20  4  0
 11 21  4  0
 12 23  1  0
 13 20  4  0
 13 29  4  0
 14 17  4  0
 14 28  4  0
 15 25  2  0
 16 27  4  0
 17 18  4  0
 20 27  1  0
 24 27  4  0
 26 28  4  0
M  END
$$$$

 Created by Python create_sdf_string function

 29 33  0  0  0  0  0  0  0  0999 V2000
    8.8270   -7.0288   18.4251 C   0  0  0  0  0  0  0  0  0  0  0  0
    9.1576   -4.6236   15.8860 O   0  0  0  0  0  0  0  0  0  0  0  0
    9.1509   -5.9108   17.7177 C   0  0  0  0  0  0  0  0  0  0  0  0
    3.6373   -9.5349   16.0582 N   0  0  0  0  0  0  0  0  0  0  0  0
    9.9275   -4.8001   18.0438 N   0  0  0  0  0  0  0  0  0  0  0  0
    8.5908   -5.7425   16.4412 C   0  0  0  0  0  0  0  0  0  0  0  0
   10.5993   -4.8981   21.6068 C   0  0  0  0  0  0  0  0  0  0  0  0
   10.4258   -3.0106   23.0998 C   0  0  0  0  0  0  0  0  0  0  0  0
   10.2148   -3.4364   25.4200 C   0  0  0  0  0  0  0  0  0  0  0  0
    9.7853   -1.1840   24.4927 C   0  0  0  0  0  0  0  0  0  0  0  0
    5.0276   -8.5227   17.5352 C   0  0  0  0  0  0  0  0  0  0  0  0
    9.8187   -2.0895   25.5800 C   0  0  0  0  0  0  0  0  0  0  0  0
    5.6473   -8.7216   15.3158 C   0  0  0  0  0  0  0  0  0  0  0  0
   10.7581   -3.1233   19.4720 N   0  0  0  0  0  0  0  0  0  0  0  0
    9.9571   -4.0573   16.8866 C   0  0  0  0  0  0  0  0  0  0  0  0
    7.6213   -6.5618   16.0087 C   0  0  0  0  0  0  0  0  0  0  0  0
   10.8583   -2.6527   20.7222 C   0  0  0  0  0  0  0  0  0  0  0  0
   10.6412   -3.5089   21.7936 C   0  0  0  0  0  0  0  0  0  0  0  0
   10.4972   -3.8968   24.1589 C   0  0  0  0  0  0  0  0  0  0  0  0
    5.9260   -8.2736   16.5517 C   0  0  0  0  0  0  0  0  0  0  0  0
    3.8816   -9.1166   17.2493 C   0  0  0  0  0  0  0  0  0  0  0  0
   10.1297   -1.6575   23.2324 C   0  0  0  0  0  0  0  0  0  0  0  0
    9.4684   -1.6929   26.7263 F   0  0  0  0  0  0  0  0  0  0  0  0
    7.7963   -7.7906   17.9837 C   0  0  0  0  0  0  0  0  0  0  0  0
   10.5884   -3.0725   16.7902 O   0  0  0  0  0  0  0  0  0  0  0  0
   10.4323   -5.3494   20.3516 C   0  0  0  0  0  0  0  0  0  0  0  0
    7.1156   -7.5454   16.8218 C   0  0  0  0  0  0  0  0  0  0  0  0
   10.3885   -4.4388   19.2773 C   0  0  0  0  0  0  0  0  0  0  0  0
    4.5160   -9.3822   15.0841 C   0  0  0  0  0  0  0  0  0  0  0  0
  1  3  4  0
  1 24  4  0
  2  6  4  0
  2 15  4  0
  3  5  4  0
  3  6  4  0
  4 21  4  0
  4 29  4  0
  5 15  4  0
  5 28  1  0
  6 16  4  0
  7 18  4  0
  7 26  4  0
  8 18  1  0
  8 19  4  0
  8 22  4  0
  9 12  4  0
  9 19  4  0
 10 12  4  0
 10 22  4  0
 11 20  4  0
 11 21  4  0
 12 23  1  0
 13 20  4  0
 13 29  4  0
 14 17  4  0
 14 28  4  0
 15 25  2  0
 16 27  4  0
 17 18  4  0
 20 27  1  0
 24 27  4  0
 26 28  4  0
M  END
$$$$

 Created by Python create_sdf_string function

 29 33  0  0  0  0  0  0  0  0999 V2000
    8.8270   -7.0288   18.4251 C   0  0  0  0  0  0  0  0  0  0  0  0
    9.1576   -4.6236   15.8860 O   0  0  0  0  0  0  0  0  0  0  0  0
    9.1509   -5.9108   17.7177 C   0  0  0  0  0  0  0  0  0  0  0  0
    3.6373   -9.5349   16.0582 N   0  0  0  0  0  0  0  0  0  0  0  0
    9.9275   -4.8001   18.0438 N   0  0  0  0  0  0  0  0  0  0  0  0
    8.5908   -5.7425   16.4412 C   0  0  0  0  0  0  0  0  0  0  0  0
   10.5993   -4.8981   21.6068 C   0  0  0  0  0  0  0  0  0  0  0  0
   10.4258   -3.0106   23.0998 C   0  0  0  0  0  0  0  0  0  0  0  0
   10.2148   -3.4364   25.4200 C   0  0  0  0  0  0  0  0  0  0  0  0
    9.7853   -1.1840   24.4927 C   0  0  0  0  0  0  0  0  0  0  0  0
    5.0276   -8.5227   17.5352 C   0  0  0  0  0  0  0  0  0  0  0  0
    9.8187   -2.0895   25.5800 C   0  0  0  0  0  0  0  0  0  0  0  0
    5.6473   -8.7216   15.3158 C   0  0  0  0  0  0  0  0  0  0  0  0
   10.7581   -3.1233   19.4720 N   0  0  0  0  0  0  0  0  0  0  0  0
    9.9571   -4.0573   16.8866 C   0  0  0  0  0  0  0  0  0  0  0  0
    7.6213   -6.5618   16.0087 C   0  0  0  0  0  0  0  0  0  0  0  0
   10.8583   -2.6527   20.7222 C   0  0  0  0  0  0  0  0  0  0  0  0
   10.6412   -3.5089   21.7936 C   0  0  0  0  0  0  0  0  0  0  0  0
   10.4972   -3.8968   24.1589 C   0  0  0  0  0  0  0  0  0  0  0  0
    5.9260   -8.2736   16.5517 C   0  0  0  0  0  0  0  0  0  0  0  0
    3.8816   -9.1166   17.2493 C   0  0  0  0  0  0  0  0  0  0  0  0
   10.1297   -1.6575   23.2324 C   0  0  0  0  0  0  0  0  0  0  0  0
    9.4684   -1.6929   26.7263 F   0  0  0  0  0  0  0  0  0  0  0  0
    7.7963   -7.7906   17.9837 C   0  0  0  0  0  0  0  0  0  0  0  0
   10.5884   -3.0725   16.7902 O   0  0  0  0  0  0  0  0  0  0  0  0
   10.4323   -5.3494   20.3516 C   0  0  0  0  0  0  0  0  0  0  0  0
    7.1156   -7.5454   16.8218 C   0  0  0  0  0  0  0  0  0  0  0  0
   10.3885   -4.4388   19.2773 C   0  0  0  0  0  0  0  0  0  0  0  0
    4.5160   -9.3822   15.0841 C   0  0  0  0  0  0  0  0  0  0  0  0
  1  3  4  0
  1 24  4  0
  2  6  4  0
  2 15  4  0
  3  5  4  0
  3  6  4  0
  4 21  4  0
  4 29  4  0
  5 15  4  0
  5 28  1  0
  6 16  4  0
  7 18  4  0
  7 26  4  0
  8 18  1  0
  8 19  4  0
  8 22  4  0
  9 12  4  0
  9 19  4  0
 10 12  4  0
 10 22  4  0
 11 20  4  0
 11 21  4  0
 12 23  1  0
 13 20  4  0
 13 29  4  0
 14 17  4  0
 14 28  4  0
 15 25  2  0
 16 27  4  0
 17 18  4  0
 20 27  1  0
 24 27  4  0
 26 28  4  0
M  END
$$$$

 Created by Python create_sdf_string function

 29 33  0  0  0  0  0  0  0  0999 V2000
    8.8270   -7.0288   18.4251 C   0  0  0  0  0  0  0  0  0  0  0  0
    9.1576   -4.6236   15.8860 O   0  0  0  0  0  0  0  0  0  0  0  0
    9.1509   -5.9108   17.7177 C   0  0  0  0  0  0  0  0  0  0  0  0
    3.6373   -9.5349   16.0582 N   0  0  0  0  0  0  0  0  0  0  0  0
    9.9275   -4.8001   18.0438 N   0  0  0  0  0  0  0  0  0  0  0  0
    8.5908   -5.7425   16.4412 C   0  0  0  0  0  0  0  0  0  0  0  0
   10.5993   -4.8981   21.6068 C   0  0  0  0  0  0  0  0  0  0  0  0
   10.4258   -3.0106   23.0998 C   0  0  0  0  0  0  0  0  0  0  0  0
   10.2148   -3.4364   25.4200 C   0  0  0  0  0  0  0  0  0  0  0  0
    9.7853   -1.1840   24.4927 C   0  0  0  0  0  0  0  0  0  0  0  0
    5.0276   -8.5227   17.5352 C   0  0  0  0  0  0  0  0  0  0  0  0
    9.8187   -2.0895   25.5800 C   0  0  0  0  0  0  0  0  0  0  0  0
    5.6473   -8.7216   15.3158 C   0  0  0  0  0  0  0  0  0  0  0  0
   10.7581   -3.1233   19.4720 N   0  0  0  0  0  0  0  0  0  0  0  0
    9.9571   -4.0573   16.8866 C   0  0  0  0  0  0  0  0  0  0  0  0
    7.6213   -6.5618   16.0087 C   0  0  0  0  0  0  0  0  0  0  0  0
   10.8583   -2.6527   20.7222 C   0  0  0  0  0  0  0  0  0  0  0  0
   10.6412   -3.5089   21.7936 C   0  0  0  0  0  0  0  0  0  0  0  0
   10.4972   -3.8968   24.1589 C   0  0  0  0  0  0  0  0  0  0  0  0
    5.9260   -8.2736   16.5517 C   0  0  0  0  0  0  0  0  0  0  0  0
    3.8816   -9.1166   17.2493 C   0  0  0  0  0  0  0  0  0  0  0  0
   10.1297   -1.6575   23.2324 C   0  0  0  0  0  0  0  0  0  0  0  0
    9.4684   -1.6929   26.7263 F   0  0  0  0  0  0  0  0  0  0  0  0
    7.7963   -7.7906   17.9837 C   0  0  0  0  0  0  0  0  0  0  0  0
   10.5884   -3.0725   16.7902 O   0  0  0  0  0  0  0  0  0  0  0  0
   10.4323   -5.3494   20.3516 C   0  0  0  0  0  0  0  0  0  0  0  0
    7.1156   -7.5454   16.8218 C   0  0  0  0  0  0  0  0  0  0  0  0
   10.3885   -4.4388   19.2773 C   0  0  0  0  0  0  0  0  0  0  0  0
    4.5160   -9.3822   15.0841 C   0  0  0  0  0  0  0  0  0  0  0  0
  1  3  4  0
  1 24  4  0
  2  6  4  0
  2 15  4  0
  3  5  4  0
  3  6  4  0
  4 21  4  0
  4 29  4  0
  5 15  4  0
  5 28  1  0
  6 16  4  0
  7 18  4  0
  7 26  4  0
  8 18  1  0
  8 19  4  0
  8 22  4  0
  9 12  4  0
  9 19  4  0
 10 12  4  0
 10 22  4  0
 11 20  4  0
 11 21  4  0
 12 23  1  0
 13 20  4  0
 13 29  4  0
 14 17  4  0
 14 28  4  0
 15 25  2  0
 16 27  4  0
 17 18  4  0
 20 27  1  0
 24 27  4  0
 26 28  4  0
M  END
$$$$

 Created by Python create_sdf_string function

 29 33  0  0  0  0  0  0  0  0999 V2000
    8.8270   -7.0288   18.4251 C   0  0  0  0  0  0  0  0  0  0  0  0
    9.1576   -4.6236   15.8860 O   0  0  0  0  0  0  0  0  0  0  0  0
    9.1509   -5.9108   17.7177 C   0  0  0  0  0  0  0  0  0  0  0  0
    3.6373   -9.5349   16.0582 N   0  0  0  0  0  0  0  0  0  0  0  0
    9.9275   -4.8001   18.0438 N   0  0  0  0  0  0  0  0  0  0  0  0
    8.5908   -5.7425   16.4412 C   0  0  0  0  0  0  0  0  0  0  0  0
   10.5993   -4.8981   21.6068 C   0  0  0  0  0  0  0  0  0  0  0  0
   10.4258   -3.0106   23.0998 C   0  0  0  0  0  0  0  0  0  0  0  0
   10.2148   -3.4364   25.4200 C   0  0  0  0  0  0  0  0  0  0  0  0
    9.7853   -1.1840   24.4927 C   0  0  0  0  0  0  0  0  0  0  0  0
    5.0276   -8.5227   17.5352 C   0  0  0  0  0  0  0  0  0  0  0  0
    9.8187   -2.0895   25.5800 C   0  0  0  0  0  0  0  0  0  0  0  0
    5.6473   -8.7216   15.3158 C   0  0  0  0  0  0  0  0  0  0  0  0
   10.7581   -3.1233   19.4720 N   0  0  0  0  0  0  0  0  0  0  0  0
    9.9571   -4.0573   16.8866 C   0  0  0  0  0  0  0  0  0  0  0  0
    7.6213   -6.5618   16.0087 C   0  0  0  0  0  0  0  0  0  0  0  0
   10.8583   -2.6527   20.7222 C   0  0  0  0  0  0  0  0  0  0  0  0
   10.6412   -3.5089   21.7936 C   0  0  0  0  0  0  0  0  0  0  0  0
   10.4972   -3.8968   24.1589 C   0  0  0  0  0  0  0  0  0  0  0  0
    5.9260   -8.2736   16.5517 C   0  0  0  0  0  0  0  0  0  0  0  0
    3.8816   -9.1166   17.2493 C   0  0  0  0  0  0  0  0  0  0  0  0
   10.1297   -1.6575   23.2324 C   0  0  0  0  0  0  0  0  0  0  0  0
    9.4684   -1.6929   26.7263 F   0  0  0  0  0  0  0  0  0  0  0  0
    7.7963   -7.7906   17.9837 C   0  0  0  0  0  0  0  0  0  0  0  0
   10.5884   -3.0725   16.7902 O   0  0  0  0  0  0  0  0  0  0  0  0
   10.4323   -5.3494   20.3516 C   0  0  0  0  0  0  0  0  0  0  0  0
    7.1156   -7.5454   16.8218 C   0  0  0  0  0  0  0  0  0  0  0  0
   10.3885   -4.4388   19.2773 C   0  0  0  0  0  0  0  0  0  0  0  0
    4.5160   -9.3822   15.0841 C   0  0  0  0  0  0  0  0  0  0  0  0
  1  3  4  0
  1 24  4  0
  2  6  4  0
  2 15  4  0
  3  5  4  0
  3  6  4  0
  4 21  4  0
  4 29  4  0
  5 15  4  0
  5 28  1  0
  6 16  4  0
  7 18  4  0
  7 26  4  0
  8 18  1  0
  8 19  4  0
  8 22  4  0
  9 12  4  0
  9 19  4  0
 10 12  4  0
 10 22  4  0
 11 20  4  0
 11 21  4  0
 12 23  1  0
 13 20  4  0
 13 29  4  0
 14 17  4  0
 14 28  4  0
 15 25  2  0
 16 27  4  0
 17 18  4  0
 20 27  1  0
 24 27  4  0
 26 28  4  0
M  END
$$$$

 Created by Python create_sdf_string function

 29 33  0  0  0  0  0  0  0  0999 V2000
    8.8270   -7.0288   18.4251 C   0  0  0  0  0  0  0  0  0  0  0  0
    9.1576   -4.6236   15.8860 O   0  0  0  0  0  0  0  0  0  0  0  0
    9.1509   -5.9108   17.7177 C   0  0  0  0  0  0  0  0  0  0  0  0
    3.6373   -9.5349   16.0582 N   0  0  0  0  0  0  0  0  0  0  0  0
    9.9275   -4.8001   18.0438 N   0  0  0  0  0  0  0  0  0  0  0  0
    8.5908   -5.7425   16.4412 C   0  0  0  0  0  0  0  0  0  0  0  0
   10.5993   -4.8981   21.6068 C   0  0  0  0  0  0  0  0  0  0  0  0
   10.4258   -3.0106   23.0998 C   0  0  0  0  0  0  0  0  0  0  0  0
   10.2148   -3.4364   25.4200 C   0  0  0  0  0  0  0  0  0  0  0  0
    9.7853   -1.1840   24.4927 C   0  0  0  0  0  0  0  0  0  0  0  0
    5.0276   -8.5227   17.5352 C   0  0  0  0  0  0  0  0  0  0  0  0
    9.8187   -2.0895   25.5800 C   0  0  0  0  0  0  0  0  0  0  0  0
    5.6473   -8.7216   15.3158 C   0  0  0  0  0  0  0  0  0  0  0  0
   10.7581   -3.1233   19.4720 N   0  0  0  0  0  0  0  0  0  0  0  0
    9.9571   -4.0573   16.8866 C   0  0  0  0  0  0  0  0  0  0  0  0
    7.6213   -6.5618   16.0087 C   0  0  0  0  0  0  0  0  0  0  0  0
   10.8583   -2.6527   20.7222 C   0  0  0  0  0  0  0  0  0  0  0  0
   10.6412   -3.5089   21.7936 C   0  0  0  0  0  0  0  0  0  0  0  0
   10.4972   -3.8968   24.1589 C   0  0  0  0  0  0  0  0  0  0  0  0
    5.9260   -8.2736   16.5517 C   0  0  0  0  0  0  0  0  0  0  0  0
    3.8816   -9.1166   17.2493 C   0  0  0  0  0  0  0  0  0  0  0  0
   10.1297   -1.6575   23.2324 C   0  0  0  0  0  0  0  0  0  0  0  0
    9.4684   -1.6929   26.7263 F   0  0  0  0  0  0  0  0  0  0  0  0
    7.7963   -7.7906   17.9837 C   0  0  0  0  0  0  0  0  0  0  0  0
   10.5884   -3.0725   16.7902 O   0  0  0  0  0  0  0  0  0  0  0  0
   10.4323   -5.3494   20.3516 C   0  0  0  0  0  0  0  0  0  0  0  0
    7.1156   -7.5454   16.8218 C   0  0  0  0  0  0  0  0  0  0  0  0
   10.3885   -4.4388   19.2773 C   0  0  0  0  0  0  0  0  0  0  0  0
    4.5160   -9.3822   15.0841 C   0  0  0  0  0  0  0  0  0  0  0  0
  1  3  4  0
  1 24  4  0
  2  6  4  0
  2 15  4  0
  3  5  4  0
  3  6  4  0
  4 21  4  0
  4 29  4  0
  5 15  4  0
  5 28  1  0
  6 16  4  0
  7 18  4  0
  7 26  4  0
  8 18  1  0
  8 19  4  0
  8 22  4  0
  9 12  4  0
  9 19  4  0
 10 12  4  0
 10 22  4  0
 11 20  4  0
 11 21  4  0
 12 23  1  0
 13 20  4  0
 13 29  4  0
 14 17  4  0
 14 28  4  0
 15 25  2  0
 16 27  4  0
 17 18  4  0
 20 27  1  0
 24 27  4  0
 26 28  4  0
M  END
$$$$

 Created by Python create_sdf_string function

 29 33  0  0  0  0  0  0  0  0999 V2000
    8.8270   -7.0288   18.4251 C   0  0  0  0  0  0  0  0  0  0  0  0
    9.1576   -4.6236   15.8860 O   0  0  0  0  0  0  0  0  0  0  0  0
    9.1509   -5.9108   17.7177 C   0  0  0  0  0  0  0  0  0  0  0  0
    3.6373   -9.5349   16.0582 N   0  0  0  0  0  0  0  0  0  0  0  0
    9.9275   -4.8001   18.0438 N   0  0  0  0  0  0  0  0  0  0  0  0
    8.5908   -5.7425   16.4412 C   0  0  0  0  0  0  0  0  0  0  0  0
   10.5993   -4.8981   21.6068 C   0  0  0  0  0  0  0  0  0  0  0  0
   10.4258   -3.0106   23.0998 C   0  0  0  0  0  0  0  0  0  0  0  0
   10.2148   -3.4364   25.4200 C   0  0  0  0  0  0  0  0  0  0  0  0
    9.7853   -1.1840   24.4927 C   0  0  0  0  0  0  0  0  0  0  0  0
    5.0276   -8.5227   17.5352 C   0  0  0  0  0  0  0  0  0  0  0  0
    9.8187   -2.0895   25.5800 C   0  0  0  0  0  0  0  0  0  0  0  0
    5.6473   -8.7216   15.3158 C   0  0  0  0  0  0  0  0  0  0  0  0
   10.7581   -3.1233   19.4720 N   0  0  0  0  0  0  0  0  0  0  0  0
    9.9571   -4.0573   16.8866 C   0  0  0  0  0  0  0  0  0  0  0  0
    7.6213   -6.5618   16.0087 C   0  0  0  0  0  0  0  0  0  0  0  0
   10.8583   -2.6527   20.7222 C   0  0  0  0  0  0  0  0  0  0  0  0
   10.6412   -3.5089   21.7936 C   0  0  0  0  0  0  0  0  0  0  0  0
   10.4972   -3.8968   24.1589 C   0  0  0  0  0  0  0  0  0  0  0  0
    5.9260   -8.2736   16.5517 C   0  0  0  0  0  0  0  0  0  0  0  0
    3.8816   -9.1166   17.2493 C   0  0  0  0  0  0  0  0  0  0  0  0
   10.1297   -1.6575   23.2324 C   0  0  0  0  0  0  0  0  0  0  0  0
    9.4684   -1.6929   26.7263 F   0  0  0  0  0  0  0  0  0  0  0  0
    7.7963   -7.7906   17.9837 C   0  0  0  0  0  0  0  0  0  0  0  0
   10.5884   -3.0725   16.7902 O   0  0  0  0  0  0  0  0  0  0  0  0
   10.4323   -5.3494   20.3516 C   0  0  0  0  0  0  0  0  0  0  0  0
    7.1156   -7.5454   16.8218 C   0  0  0  0  0  0  0  0  0  0  0  0
   10.3885   -4.4388   19.2773 C   0  0  0  0  0  0  0  0  0  0  0  0
    4.5160   -9.3822   15.0841 C   0  0  0  0  0  0  0  0  0  0  0  0
  1  3  4  0
  1 24  4  0
  2  6  4  0
  2 15  4  0
  3  5  4  0
  3  6  4  0
  4 21  4  0
  4 29  4  0
  5 15  4  0
  5 28  1  0
  6 16  4  0
  7 18  4  0
  7 26  4  0
  8 18  1  0
  8 19  4  0
  8 22  4  0
  9 12  4  0
  9 19  4  0
 10 12  4  0
 10 22  4  0
 11 20  4  0
 11 21  4  0
 12 23  1  0
 13 20  4  0
 13 29  4  0
 14 17  4  0
 14 28  4  0
 15 25  2  0
 16 27  4  0
 17 18  4  0
 20 27  1  0
 24 27  4  0
 26 28  4  0
M  END
$$$$

 Created by Python create_sdf_string function

 29 33  0  0  0  0  0  0  0  0999 V2000
    8.8270   -7.0288   18.4251 C   0  0  0  0  0  0  0  0  0  0  0  0
    9.1576   -4.6236   15.8860 O   0  0  0  0  0  0  0  0  0  0  0  0
    9.1509   -5.9108   17.7177 C   0  0  0  0  0  0  0  0  0  0  0  0
    3.6373   -9.5349   16.0582 N   0  0  0  0  0  0  0  0  0  0  0  0
    9.9275   -4.8001   18.0438 N   0  0  0  0  0  0  0  0  0  0  0  0
    8.5908   -5.7425   16.4412 C   0  0  0  0  0  0  0  0  0  0  0  0
   10.5993   -4.8981   21.6068 C   0  0  0  0  0  0  0  0  0  0  0  0
   10.4258   -3.0106   23.0998 C   0  0  0  0  0  0  0  0  0  0  0  0
   10.2148   -3.4364   25.4200 C   0  0  0  0  0  0  0  0  0  0  0  0
    9.7853   -1.1840   24.4927 C   0  0  0  0  0  0  0  0  0  0  0  0
    5.0276   -8.5227   17.5352 C   0  0  0  0  0  0  0  0  0  0  0  0
    9.8187   -2.0895   25.5800 C   0  0  0  0  0  0  0  0  0  0  0  0
    5.6473   -8.7216   15.3158 C   0  0  0  0  0  0  0  0  0  0  0  0
   10.7581   -3.1233   19.4720 N   0  0  0  0  0  0  0  0  0  0  0  0
    9.9571   -4.0573   16.8866 C   0  0  0  0  0  0  0  0  0  0  0  0
    7.6213   -6.5618   16.0087 C   0  0  0  0  0  0  0  0  0  0  0  0
   10.8583   -2.6527   20.7222 C   0  0  0  0  0  0  0  0  0  0  0  0
   10.6412   -3.5089   21.7936 C   0  0  0  0  0  0  0  0  0  0  0  0
   10.4972   -3.8968   24.1589 C   0  0  0  0  0  0  0  0  0  0  0  0
    5.9260   -8.2736   16.5517 C   0  0  0  0  0  0  0  0  0  0  0  0
    3.8816   -9.1166   17.2493 C   0  0  0  0  0  0  0  0  0  0  0  0
   10.1297   -1.6575   23.2324 C   0  0  0  0  0  0  0  0  0  0  0  0
    9.4684   -1.6929   26.7263 F   0  0  0  0  0  0  0  0  0  0  0  0
    7.7963   -7.7906   17.9837 C   0  0  0  0  0  0  0  0  0  0  0  0
   10.5884   -3.0725   16.7902 O   0  0  0  0  0  0  0  0  0  0  0  0
   10.4323   -5.3494   20.3516 C   0  0  0  0  0  0  0  0  0  0  0  0
    7.1156   -7.5454   16.8218 C   0  0  0  0  0  0  0  0  0  0  0  0
   10.3885   -4.4388   19.2773 C   0  0  0  0  0  0  0  0  0  0  0  0
    4.5160   -9.3822   15.0841 C   0  0  0  0  0  0  0  0  0  0  0  0
  1  3  4  0
  1 24  4  0
  2  6  4  0
  2 15  4  0
  3  5  4  0
  3  6  4  0
  4 21  4  0
  4 29  4  0
  5 15  4  0
  5 28  1  0
  6 16  4  0
  7 18  4  0
  7 26  4  0
  8 18  1  0
  8 19  4  0
  8 22  4  0
  9 12  4  0
  9 19  4  0
 10 12  4  0
 10 22  4  0
 11 20  4  0
 11 21  4  0
 12 23  1  0
 13 20  4  0
 13 29  4  0
 14 17  4  0
 14 28  4  0
 15 25  2  0
 16 27  4  0
 17 18  4  0
 20 27  1  0
 24 27  4  0
 26 28  4  0
M  END
$$$$

 Created by Python create_sdf_string function

 29 33  0  0  0  0  0  0  0  0999 V2000
    8.8270   -7.0288   18.4251 C   0  0  0  0  0  0  0  0  0  0  0  0
    9.1576   -4.6236   15.8860 O   0  0  0  0  0  0  0  0  0  0  0  0
    9.1509   -5.9108   17.7177 C   0  0  0  0  0  0  0  0  0  0  0  0
    3.6373   -9.5349   16.0582 N   0  0  0  0  0  0  0  0  0  0  0  0
    9.9275   -4.8001   18.0438 N   0  0  0  0  0  0  0  0  0  0  0  0
    8.5908   -5.7425   16.4412 C   0  0  0  0  0  0  0  0  0  0  0  0
   10.5993   -4.8981   21.6068 C   0  0  0  0  0  0  0  0  0  0  0  0
   10.4258   -3.0106   23.0998 C   0  0  0  0  0  0  0  0  0  0  0  0
   10.2148   -3.4364   25.4200 C   0  0  0  0  0  0  0  0  0  0  0  0
    9.7853   -1.1840   24.4927 C   0  0  0  0  0  0  0  0  0  0  0  0
    5.0276   -8.5227   17.5352 C   0  0  0  0  0  0  0  0  0  0  0  0
    9.8187   -2.0895   25.5800 C   0  0  0  0  0  0  0  0  0  0  0  0
    5.6473   -8.7216   15.3158 C   0  0  0  0  0  0  0  0  0  0  0  0
   10.7581   -3.1233   19.4720 N   0  0  0  0  0  0  0  0  0  0  0  0
    9.9571   -4.0573   16.8866 C   0  0  0  0  0  0  0  0  0  0  0  0
    7.6213   -6.5618   16.0087 C   0  0  0  0  0  0  0  0  0  0  0  0
   10.8583   -2.6527   20.7222 C   0  0  0  0  0  0  0  0  0  0  0  0
   10.6412   -3.5089   21.7936 C   0  0  0  0  0  0  0  0  0  0  0  0
   10.4972   -3.8968   24.1589 C   0  0  0  0  0  0  0  0  0  0  0  0
    5.9260   -8.2736   16.5517 C   0  0  0  0  0  0  0  0  0  0  0  0
    3.8816   -9.1166   17.2493 C   0  0  0  0  0  0  0  0  0  0  0  0
   10.1297   -1.6575   23.2324 C   0  0  0  0  0  0  0  0  0  0  0  0
    9.4684   -1.6929   26.7263 F   0  0  0  0  0  0  0  0  0  0  0  0
    7.7963   -7.7906   17.9837 C   0  0  0  0  0  0  0  0  0  0  0  0
   10.5884   -3.0725   16.7902 O   0  0  0  0  0  0  0  0  0  0  0  0
   10.4323   -5.3494   20.3516 C   0  0  0  0  0  0  0  0  0  0  0  0
    7.1156   -7.5454   16.8218 C   0  0  0  0  0  0  0  0  0  0  0  0
   10.3885   -4.4388   19.2773 C   0  0  0  0  0  0  0  0  0  0  0  0
    4.5160   -9.3822   15.0841 C   0  0  0  0  0  0  0  0  0  0  0  0
  1  3  4  0
  1 24  4  0
  2  6  4  0
  2 15  4  0
  3  5  4  0
  3  6  4  0
  4 21  4  0
  4 29  4  0
  5 15  4  0
  5 28  1  0
  6 16  4  0
  7 18  4  0
  7 26  4  0
  8 18  1  0
  8 19  4  0
  8 22  4  0
  9 12  4  0
  9 19  4  0
 10 12  4  0
 10 22  4  0
 11 20  4  0
 11 21  4  0
 12 23  1  0
 13 20  4  0
 13 29  4  0
 14 17  4  0
 14 28  4  0
 15 25  2  0
 16 27  4  0
 17 18  4  0
 20 27  1  0
 24 27  4  0
 26 28  4  0
M  END
$$$$

 Created by Python create_sdf_string function

 29 33  0  0  0  0  0  0  0  0999 V2000
    8.8270   -7.0288   18.4251 C   0  0  0  0  0  0  0  0  0  0  0  0
    9.1576   -4.6236   15.8860 O   0  0  0  0  0  0  0  0  0  0  0  0
    9.1509   -5.9108   17.7177 C   0  0  0  0  0  0  0  0  0  0  0  0
    3.6373   -9.5349   16.0582 N   0  0  0  0  0  0  0  0  0  0  0  0
    9.9275   -4.8001   18.0438 N   0  0  0  0  0  0  0  0  0  0  0  0
    8.5908   -5.7425   16.4412 C   0  0  0  0  0  0  0  0  0  0  0  0
   10.5993   -4.8981   21.6068 C   0  0  0  0  0  0  0  0  0  0  0  0
   10.4258   -3.0106   23.0998 C   0  0  0  0  0  0  0  0  0  0  0  0
   10.2148   -3.4364   25.4200 C   0  0  0  0  0  0  0  0  0  0  0  0
    9.7853   -1.1840   24.4927 C   0  0  0  0  0  0  0  0  0  0  0  0
    5.0276   -8.5227   17.5352 C   0  0  0  0  0  0  0  0  0  0  0  0
    9.8187   -2.0895   25.5800 C   0  0  0  0  0  0  0  0  0  0  0  0
    5.6473   -8.7216   15.3158 C   0  0  0  0  0  0  0  0  0  0  0  0
   10.7581   -3.1233   19.4720 N   0  0  0  0  0  0  0  0  0  0  0  0
    9.9571   -4.0573   16.8866 C   0  0  0  0  0  0  0  0  0  0  0  0
    7.6213   -6.5618   16.0087 C   0  0  0  0  0  0  0  0  0  0  0  0
   10.8583   -2.6527   20.7222 C   0  0  0  0  0  0  0  0  0  0  0  0
   10.6412   -3.5089   21.7936 C   0  0  0  0  0  0  0  0  0  0  0  0
   10.4972   -3.8968   24.1589 C   0  0  0  0  0  0  0  0  0  0  0  0
    5.9260   -8.2736   16.5517 C   0  0  0  0  0  0  0  0  0  0  0  0
    3.8816   -9.1166   17.2493 C   0  0  0  0  0  0  0  0  0  0  0  0
   10.1297   -1.6575   23.2324 C   0  0  0  0  0  0  0  0  0  0  0  0
    9.4684   -1.6929   26.7263 F   0  0  0  0  0  0  0  0  0  0  0  0
    7.7963   -7.7906   17.9837 C   0  0  0  0  0  0  0  0  0  0  0  0
   10.5884   -3.0725   16.7902 O   0  0  0  0  0  0  0  0  0  0  0  0
   10.4323   -5.3494   20.3516 C   0  0  0  0  0  0  0  0  0  0  0  0
    7.1156   -7.5454   16.8218 C   0  0  0  0  0  0  0  0  0  0  0  0
   10.3885   -4.4388   19.2773 C   0  0  0  0  0  0  0  0  0  0  0  0
    4.5160   -9.3822   15.0841 C   0  0  0  0  0  0  0  0  0  0  0  0
  1  3  4  0
  1 24  4  0
  2  6  4  0
  2 15  4  0
  3  5  4  0
  3  6  4  0
  4 21  4  0
  4 29  4  0
  5 15  4  0
  5 28  1  0
  6 16  4  0
  7 18  4  0
  7 26  4  0
  8 18  1  0
  8 19  4  0
  8 22  4  0
  9 12  4  0
  9 19  4  0
 10 12  4  0
 10 22  4  0
 11 20  4  0
 11 21  4  0
 12 23  1  0
 13 20  4  0
 13 29  4  0
 14 17  4  0
 14 28  4  0
 15 25  2  0
 16 27  4  0
 17 18  4  0
 20 27  1  0
 24 27  4  0
 26 28  4  0
M  END
$$$$

 Created by Python create_sdf_string function

 29 33  0  0  0  0  0  0  0  0999 V2000
    8.8270   -7.0288   18.4251 C   0  0  0  0  0  0  0  0  0  0  0  0
    9.1576   -4.6236   15.8860 O   0  0  0  0  0  0  0  0  0  0  0  0
    9.1509   -5.9108   17.7177 C   0  0  0  0  0  0  0  0  0  0  0  0
    3.6373   -9.5349   16.0582 N   0  0  0  0  0  0  0  0  0  0  0  0
    9.9275   -4.8001   18.0438 N   0  0  0  0  0  0  0  0  0  0  0  0
    8.5908   -5.7425   16.4412 C   0  0  0  0  0  0  0  0  0  0  0  0
   10.5993   -4.8981   21.6068 C   0  0  0  0  0  0  0  0  0  0  0  0
   10.4258   -3.0106   23.0998 C   0  0  0  0  0  0  0  0  0  0  0  0
   10.2148   -3.4364   25.4200 C   0  0  0  0  0  0  0  0  0  0  0  0
    9.7853   -1.1840   24.4927 C   0  0  0  0  0  0  0  0  0  0  0  0
    5.0276   -8.5227   17.5352 C   0  0  0  0  0  0  0  0  0  0  0  0
    9.8187   -2.0895   25.5800 C   0  0  0  0  0  0  0  0  0  0  0  0
    5.6473   -8.7216   15.3158 C   0  0  0  0  0  0  0  0  0  0  0  0
   10.7581   -3.1233   19.4720 N   0  0  0  0  0  0  0  0  0  0  0  0
    9.9571   -4.0573   16.8866 C   0  0  0  0  0  0  0  0  0  0  0  0
    7.6213   -6.5618   16.0087 C   0  0  0  0  0  0  0  0  0  0  0  0
   10.8583   -2.6527   20.7222 C   0  0  0  0  0  0  0  0  0  0  0  0
   10.6412   -3.5089   21.7936 C   0  0  0  0  0  0  0  0  0  0  0  0
   10.4972   -3.8968   24.1589 C   0  0  0  0  0  0  0  0  0  0  0  0
    5.9260   -8.2736   16.5517 C   0  0  0  0  0  0  0  0  0  0  0  0
    3.8816   -9.1166   17.2493 C   0  0  0  0  0  0  0  0  0  0  0  0
   10.1297   -1.6575   23.2324 C   0  0  0  0  0  0  0  0  0  0  0  0
    9.4684   -1.6929   26.7263 F   0  0  0  0  0  0  0  0  0  0  0  0
    7.7963   -7.7906   17.9837 C   0  0  0  0  0  0  0  0  0  0  0  0
   10.5884   -3.0725   16.7902 O   0  0  0  0  0  0  0  0  0  0  0  0
   10.4323   -5.3494   20.3516 C   0  0  0  0  0  0  0  0  0  0  0  0
    7.1156   -7.5454   16.8218 C   0  0  0  0  0  0  0  0  0  0  0  0
   10.3885   -4.4388   19.2773 C   0  0  0  0  0  0  0  0  0  0  0  0
    4.5160   -9.3822   15.0841 C   0  0  0  0  0  0  0  0  0  0  0  0
  1  3  4  0
  1 24  4  0
  2  6  4  0
  2 15  4  0
  3  5  4  0
  3  6  4  0
  4 21  4  0
  4 29  4  0
  5 15  4  0
  5 28  1  0
  6 16  4  0
  7 18  4  0
  7 26  4  0
  8 18  1  0
  8 19  4  0
  8 22  4  0
  9 12  4  0
  9 19  4  0
 10 12  4  0
 10 22  4  0
 11 20  4  0
 11 21  4  0
 12 23  1  0
 13 20  4  0
 13 29  4  0
 14 17  4  0
 14 28  4  0
 15 25  2  0
 16 27  4  0
 17 18  4  0
 20 27  1  0
 24 27  4  0
 26 28  4  0
M  END
$$$$

 Created by Python create_sdf_string function

 29 33  0  0  0  0  0  0  0  0999 V2000
    8.8270   -7.0288   18.4251 C   0  0  0  0  0  0  0  0  0  0  0  0
    9.1576   -4.6236   15.8860 O   0  0  0  0  0  0  0  0  0  0  0  0
    9.1509   -5.9108   17.7177 C   0  0  0  0  0  0  0  0  0  0  0  0
    3.6373   -9.5349   16.0582 N   0  0  0  0  0  0  0  0  0  0  0  0
    9.9275   -4.8001   18.0438 N   0  0  0  0  0  0  0  0  0  0  0  0
    8.5908   -5.7425   16.4412 C   0  0  0  0  0  0  0  0  0  0  0  0
   10.5993   -4.8981   21.6068 C   0  0  0  0  0  0  0  0  0  0  0  0
   10.4258   -3.0106   23.0998 C   0  0  0  0  0  0  0  0  0  0  0  0
   10.2148   -3.4364   25.4200 C   0  0  0  0  0  0  0  0  0  0  0  0
    9.7853   -1.1840   24.4927 C   0  0  0  0  0  0  0  0  0  0  0  0
    5.0276   -8.5227   17.5352 C   0  0  0  0  0  0  0  0  0  0  0  0
    9.8187   -2.0895   25.5800 C   0  0  0  0  0  0  0  0  0  0  0  0
    5.6473   -8.7216   15.3158 C   0  0  0  0  0  0  0  0  0  0  0  0
   10.7581   -3.1233   19.4720 N   0  0  0  0  0  0  0  0  0  0  0  0
    9.9571   -4.0573   16.8866 C   0  0  0  0  0  0  0  0  0  0  0  0
    7.6213   -6.5618   16.0087 C   0  0  0  0  0  0  0  0  0  0  0  0
   10.8583   -2.6527   20.7222 C   0  0  0  0  0  0  0  0  0  0  0  0
   10.6412   -3.5089   21.7936 C   0  0  0  0  0  0  0  0  0  0  0  0
   10.4972   -3.8968   24.1589 C   0  0  0  0  0  0  0  0  0  0  0  0
    5.9260   -8.2736   16.5517 C   0  0  0  0  0  0  0  0  0  0  0  0
    3.8816   -9.1166   17.2493 C   0  0  0  0  0  0  0  0  0  0  0  0
   10.1297   -1.6575   23.2324 C   0  0  0  0  0  0  0  0  0  0  0  0
    9.4684   -1.6929   26.7263 F   0  0  0  0  0  0  0  0  0  0  0  0
    7.7963   -7.7906   17.9837 C   0  0  0  0  0  0  0  0  0  0  0  0
   10.5884   -3.0725   16.7902 O   0  0  0  0  0  0  0  0  0  0  0  0
   10.4323   -5.3494   20.3516 C   0  0  0  0  0  0  0  0  0  0  0  0
    7.1156   -7.5454   16.8218 C   0  0  0  0  0  0  0  0  0  0  0  0
   10.3885   -4.4388   19.2773 C   0  0  0  0  0  0  0  0  0  0  0  0
    4.5160   -9.3822   15.0841 C   0  0  0  0  0  0  0  0  0  0  0  0
  1  3  4  0
  1 24  4  0
  2  6  4  0
  2 15  4  0
  3  5  4  0
  3  6  4  0
  4 21  4  0
  4 29  4  0
  5 15  4  0
  5 28  1  0
  6 16  4  0
  7 18  4  0
  7 26  4  0
  8 18  1  0
  8 19  4  0
  8 22  4  0
  9 12  4  0
  9 19  4  0
 10 12  4  0
 10 22  4  0
 11 20  4  0
 11 21  4  0
 12 23  1  0
 13 20  4  0
 13 29  4  0
 14 17  4  0
 14 28  4  0
 15 25  2  0
 16 27  4  0
 17 18  4  0
 20 27  1  0
 24 27  4  0
 26 28  4  0
M  END
$$$$

 Created by Python create_sdf_string function

 29 33  0  0  0  0  0  0  0  0999 V2000
    8.8270   -7.0288   18.4251 C   0  0  0  0  0  0  0  0  0  0  0  0
    9.1576   -4.6236   15.8860 O   0  0  0  0  0  0  0  0  0  0  0  0
    9.1509   -5.9108   17.7177 C   0  0  0  0  0  0  0  0  0  0  0  0
    3.6373   -9.5349   16.0582 N   0  0  0  0  0  0  0  0  0  0  0  0
    9.9275   -4.8001   18.0438 N   0  0  0  0  0  0  0  0  0  0  0  0
    8.5908   -5.7425   16.4412 C   0  0  0  0  0  0  0  0  0  0  0  0
   10.5993   -4.8981   21.6068 C   0  0  0  0  0  0  0  0  0  0  0  0
   10.4258   -3.0106   23.0998 C   0  0  0  0  0  0  0  0  0  0  0  0
   10.2148   -3.4364   25.4200 C   0  0  0  0  0  0  0  0  0  0  0  0
    9.7853   -1.1840   24.4927 C   0  0  0  0  0  0  0  0  0  0  0  0
    5.0276   -8.5227   17.5352 C   0  0  0  0  0  0  0  0  0  0  0  0
    9.8187   -2.0895   25.5800 C   0  0  0  0  0  0  0  0  0  0  0  0
    5.6473   -8.7216   15.3158 C   0  0  0  0  0  0  0  0  0  0  0  0
   10.7581   -3.1233   19.4720 N   0  0  0  0  0  0  0  0  0  0  0  0
    9.9571   -4.0573   16.8866 C   0  0  0  0  0  0  0  0  0  0  0  0
    7.6213   -6.5618   16.0087 C   0  0  0  0  0  0  0  0  0  0  0  0
   10.8583   -2.6527   20.7222 C   0  0  0  0  0  0  0  0  0  0  0  0
   10.6412   -3.5089   21.7936 C   0  0  0  0  0  0  0  0  0  0  0  0
   10.4972   -3.8968   24.1589 C   0  0  0  0  0  0  0  0  0  0  0  0
    5.9260   -8.2736   16.5517 C   0  0  0  0  0  0  0  0  0  0  0  0
    3.8816   -9.1166   17.2493 C   0  0  0  0  0  0  0  0  0  0  0  0
   10.1297   -1.6575   23.2324 C   0  0  0  0  0  0  0  0  0  0  0  0
    9.4684   -1.6929   26.7263 F   0  0  0  0  0  0  0  0  0  0  0  0
    7.7963   -7.7906   17.9837 C   0  0  0  0  0  0  0  0  0  0  0  0
   10.5884   -3.0725   16.7902 O   0  0  0  0  0  0  0  0  0  0  0  0
   10.4323   -5.3494   20.3516 C   0  0  0  0  0  0  0  0  0  0  0  0
    7.1156   -7.5454   16.8218 C   0  0  0  0  0  0  0  0  0  0  0  0
   10.3885   -4.4388   19.2773 C   0  0  0  0  0  0  0  0  0  0  0  0
    4.5160   -9.3822   15.0841 C   0  0  0  0  0  0  0  0  0  0  0  0
  1  3  4  0
  1 24  4  0
  2  6  4  0
  2 15  4  0
  3  5  4  0
  3  6  4  0
  4 21  4  0
  4 29  4  0
  5 15  4  0
  5 28  1  0
  6 16  4  0
  7 18  4  0
  7 26  4  0
  8 18  1  0
  8 19  4  0
  8 22  4  0
  9 12  4  0
  9 19  4  0
 10 12  4  0
 10 22  4  0
 11 20  4  0
 11 21  4  0
 12 23  1  0
 13 20  4  0
 13 29  4  0
 14 17  4  0
 14 28  4  0
 15 25  2  0
 16 27  4  0
 17 18  4  0
 20 27  1  0
 24 27  4  0
 26 28  4  0
M  END
$$$$

 Created by Python create_sdf_string function

 29 33  0  0  0  0  0  0  0  0999 V2000
    8.8270   -7.0288   18.4251 C   0  0  0  0  0  0  0  0  0  0  0  0
    9.1576   -4.6236   15.8860 O   0  0  0  0  0  0  0  0  0  0  0  0
    9.1509   -5.9108   17.7177 C   0  0  0  0  0  0  0  0  0  0  0  0
    3.6373   -9.5349   16.0582 N   0  0  0  0  0  0  0  0  0  0  0  0
    9.9275   -4.8001   18.0438 N   0  0  0  0  0  0  0  0  0  0  0  0
    8.5908   -5.7425   16.4412 C   0  0  0  0  0  0  0  0  0  0  0  0
   10.5993   -4.8981   21.6068 C   0  0  0  0  0  0  0  0  0  0  0  0
   10.4258   -3.0106   23.0998 C   0  0  0  0  0  0  0  0  0  0  0  0
   10.2148   -3.4364   25.4200 C   0  0  0  0  0  0  0  0  0  0  0  0
    9.7853   -1.1840   24.4927 C   0  0  0  0  0  0  0  0  0  0  0  0
    5.0276   -8.5227   17.5352 C   0  0  0  0  0  0  0  0  0  0  0  0
    9.8187   -2.0895   25.5800 C   0  0  0  0  0  0  0  0  0  0  0  0
    5.6473   -8.7216   15.3158 C   0  0  0  0  0  0  0  0  0  0  0  0
   10.7581   -3.1233   19.4720 N   0  0  0  0  0  0  0  0  0  0  0  0
    9.9571   -4.0573   16.8866 C   0  0  0  0  0  0  0  0  0  0  0  0
    7.6213   -6.5618   16.0087 C   0  0  0  0  0  0  0  0  0  0  0  0
   10.8583   -2.6527   20.7222 C   0  0  0  0  0  0  0  0  0  0  0  0
   10.6412   -3.5089   21.7936 C   0  0  0  0  0  0  0  0  0  0  0  0
   10.4972   -3.8968   24.1589 C   0  0  0  0  0  0  0  0  0  0  0  0
    5.9260   -8.2736   16.5517 C   0  0  0  0  0  0  0  0  0  0  0  0
    3.8816   -9.1166   17.2493 C   0  0  0  0  0  0  0  0  0  0  0  0
   10.1297   -1.6575   23.2324 C   0  0  0  0  0  0  0  0  0  0  0  0
    9.4684   -1.6929   26.7263 F   0  0  0  0  0  0  0  0  0  0  0  0
    7.7963   -7.7906   17.9837 C   0  0  0  0  0  0  0  0  0  0  0  0
   10.5884   -3.0725   16.7902 O   0  0  0  0  0  0  0  0  0  0  0  0
   10.4323   -5.3494   20.3516 C   0  0  0  0  0  0  0  0  0  0  0  0
    7.1156   -7.5454   16.8218 C   0  0  0  0  0  0  0  0  0  0  0  0
   10.3885   -4.4388   19.2773 C   0  0  0  0  0  0  0  0  0  0  0  0
    4.5160   -9.3822   15.0841 C   0  0  0  0  0  0  0  0  0  0  0  0
  1  3  4  0
  1 24  4  0
  2  6  4  0
  2 15  4  0
  3  5  4  0
  3  6  4  0
  4 21  4  0
  4 29  4  0
  5 15  4  0
  5 28  1  0
  6 16  4  0
  7 18  4  0
  7 26  4  0
  8 18  1  0
  8 19  4  0
  8 22  4  0
  9 12  4  0
  9 19  4  0
 10 12  4  0
 10 22  4  0
 11 20  4  0
 11 21  4  0
 12 23  1  0
 13 20  4  0
 13 29  4  0
 14 17  4  0
 14 28  4  0
 15 25  2  0
 16 27  4  0
 17 18  4  0
 20 27  1  0
 24 27  4  0
 26 28  4  0
M  END
$$$$

 Created by Python create_sdf_string function

 29 33  0  0  0  0  0  0  0  0999 V2000
    8.8270   -7.0288   18.4251 C   0  0  0  0  0  0  0  0  0  0  0  0
    9.1576   -4.6236   15.8860 O   0  0  0  0  0  0  0  0  0  0  0  0
    9.1509   -5.9108   17.7177 C   0  0  0  0  0  0  0  0  0  0  0  0
    3.6373   -9.5349   16.0582 N   0  0  0  0  0  0  0  0  0  0  0  0
    9.9275   -4.8001   18.0438 N   0  0  0  0  0  0  0  0  0  0  0  0
    8.5908   -5.7425   16.4412 C   0  0  0  0  0  0  0  0  0  0  0  0
   10.5993   -4.8981   21.6068 C   0  0  0  0  0  0  0  0  0  0  0  0
   10.4258   -3.0106   23.0998 C   0  0  0  0  0  0  0  0  0  0  0  0
   10.2148   -3.4364   25.4200 C   0  0  0  0  0  0  0  0  0  0  0  0
    9.7853   -1.1840   24.4927 C   0  0  0  0  0  0  0  0  0  0  0  0
    5.0276   -8.5227   17.5352 C   0  0  0  0  0  0  0  0  0  0  0  0
    9.8187   -2.0895   25.5800 C   0  0  0  0  0  0  0  0  0  0  0  0
    5.6473   -8.7216   15.3158 C   0  0  0  0  0  0  0  0  0  0  0  0
   10.7581   -3.1233   19.4720 N   0  0  0  0  0  0  0  0  0  0  0  0
    9.9571   -4.0573   16.8866 C   0  0  0  0  0  0  0  0  0  0  0  0
    7.6213   -6.5618   16.0087 C   0  0  0  0  0  0  0  0  0  0  0  0
   10.8583   -2.6527   20.7222 C   0  0  0  0  0  0  0  0  0  0  0  0
   10.6412   -3.5089   21.7936 C   0  0  0  0  0  0  0  0  0  0  0  0
   10.4972   -3.8968   24.1589 C   0  0  0  0  0  0  0  0  0  0  0  0
    5.9260   -8.2736   16.5517 C   0  0  0  0  0  0  0  0  0  0  0  0
    3.8816   -9.1166   17.2493 C   0  0  0  0  0  0  0  0  0  0  0  0
   10.1297   -1.6575   23.2324 C   0  0  0  0  0  0  0  0  0  0  0  0
    9.4684   -1.6929   26.7263 F   0  0  0  0  0  0  0  0  0  0  0  0
    7.7963   -7.7906   17.9837 C   0  0  0  0  0  0  0  0  0  0  0  0
   10.5884   -3.0725   16.7902 O   0  0  0  0  0  0  0  0  0  0  0  0
   10.4323   -5.3494   20.3516 C   0  0  0  0  0  0  0  0  0  0  0  0
    7.1156   -7.5454   16.8218 C   0  0  0  0  0  0  0  0  0  0  0  0
   10.3885   -4.4388   19.2773 C   0  0  0  0  0  0  0  0  0  0  0  0
    4.5160   -9.3822   15.0841 C   0  0  0  0  0  0  0  0  0  0  0  0
  1  3  4  0
  1 24  4  0
  2  6  4  0
  2 15  4  0
  3  5  4  0
  3  6  4  0
  4 21  4  0
  4 29  4  0
  5 15  4  0
  5 28  1  0
  6 16  4  0
  7 18  4  0
  7 26  4  0
  8 18  1  0
  8 19  4  0
  8 22  4  0
  9 12  4  0
  9 19  4  0
 10 12  4  0
 10 22  4  0
 11 20  4  0
 11 21  4  0
 12 23  1  0
 13 20  4  0
 13 29  4  0
 14 17  4  0
 14 28  4  0
 15 25  2  0
 16 27  4  0
 17 18  4  0
 20 27  1  0
 24 27  4  0
 26 28  4  0
M  END
$$$$

 Created by Python create_sdf_string function

 29 33  0  0  0  0  0  0  0  0999 V2000
    8.8270   -7.0288   18.4251 C   0  0  0  0  0  0  0  0  0  0  0  0
    9.1576   -4.6236   15.8860 O   0  0  0  0  0  0  0  0  0  0  0  0
    9.1509   -5.9108   17.7177 C   0  0  0  0  0  0  0  0  0  0  0  0
    3.6373   -9.5349   16.0582 N   0  0  0  0  0  0  0  0  0  0  0  0
    9.9275   -4.8001   18.0438 N   0  0  0  0  0  0  0  0  0  0  0  0
    8.5908   -5.7425   16.4412 C   0  0  0  0  0  0  0  0  0  0  0  0
   10.5993   -4.8981   21.6068 C   0  0  0  0  0  0  0  0  0  0  0  0
   10.4258   -3.0106   23.0998 C   0  0  0  0  0  0  0  0  0  0  0  0
   10.2148   -3.4364   25.4200 C   0  0  0  0  0  0  0  0  0  0  0  0
    9.7853   -1.1840   24.4927 C   0  0  0  0  0  0  0  0  0  0  0  0
    5.0276   -8.5227   17.5352 C   0  0  0  0  0  0  0  0  0  0  0  0
    9.8187   -2.0895   25.5800 C   0  0  0  0  0  0  0  0  0  0  0  0
    5.6473   -8.7216   15.3158 C   0  0  0  0  0  0  0  0  0  0  0  0
   10.7581   -3.1233   19.4720 N   0  0  0  0  0  0  0  0  0  0  0  0
    9.9571   -4.0573   16.8866 C   0  0  0  0  0  0  0  0  0  0  0  0
    7.6213   -6.5618   16.0087 C   0  0  0  0  0  0  0  0  0  0  0  0
   10.8583   -2.6527   20.7222 C   0  0  0  0  0  0  0  0  0  0  0  0
   10.6412   -3.5089   21.7936 C   0  0  0  0  0  0  0  0  0  0  0  0
   10.4972   -3.8968   24.1589 C   0  0  0  0  0  0  0  0  0  0  0  0
    5.9260   -8.2736   16.5517 C   0  0  0  0  0  0  0  0  0  0  0  0
    3.8816   -9.1166   17.2493 C   0  0  0  0  0  0  0  0  0  0  0  0
   10.1297   -1.6575   23.2324 C   0  0  0  0  0  0  0  0  0  0  0  0
    9.4684   -1.6929   26.7263 F   0  0  0  0  0  0  0  0  0  0  0  0
    7.7963   -7.7906   17.9837 C   0  0  0  0  0  0  0  0  0  0  0  0
   10.5884   -3.0725   16.7902 O   0  0  0  0  0  0  0  0  0  0  0  0
   10.4323   -5.3494   20.3516 C   0  0  0  0  0  0  0  0  0  0  0  0
    7.1156   -7.5454   16.8218 C   0  0  0  0  0  0  0  0  0  0  0  0
   10.3885   -4.4388   19.2773 C   0  0  0  0  0  0  0  0  0  0  0  0
    4.5160   -9.3822   15.0841 C   0  0  0  0  0  0  0  0  0  0  0  0
  1  3  4  0
  1 24  4  0
  2  6  4  0
  2 15  4  0
  3  5  4  0
  3  6  4  0
  4 21  4  0
  4 29  4  0
  5 15  4  0
  5 28  1  0
  6 16  4  0
  7 18  4  0
  7 26  4  0
  8 18  1  0
  8 19  4  0
  8 22  4  0
  9 12  4  0
  9 19  4  0
 10 12  4  0
 10 22  4  0
 11 20  4  0
 11 21  4  0
 12 23  1  0
 13 20  4  0
 13 29  4  0
 14 17  4  0
 14 28  4  0
 15 25  2  0
 16 27  4  0
 17 18  4  0
 20 27  1  0
 24 27  4  0
 26 28  4  0
M  END
$$$$

 Created by Python create_sdf_string function

 29 33  0  0  0  0  0  0  0  0999 V2000
    8.8270   -7.0288   18.4251 C   0  0  0  0  0  0  0  0  0  0  0  0
    9.1576   -4.6236   15.8860 O   0  0  0  0  0  0  0  0  0  0  0  0
    9.1509   -5.9108   17.7177 C   0  0  0  0  0  0  0  0  0  0  0  0
    3.6373   -9.5349   16.0582 N   0  0  0  0  0  0  0  0  0  0  0  0
    9.9275   -4.8001   18.0438 N   0  0  0  0  0  0  0  0  0  0  0  0
    8.5908   -5.7425   16.4412 C   0  0  0  0  0  0  0  0  0  0  0  0
   10.5993   -4.8981   21.6068 C   0  0  0  0  0  0  0  0  0  0  0  0
   10.4258   -3.0106   23.0998 C   0  0  0  0  0  0  0  0  0  0  0  0
   10.2148   -3.4364   25.4200 C   0  0  0  0  0  0  0  0  0  0  0  0
    9.7853   -1.1840   24.4927 C   0  0  0  0  0  0  0  0  0  0  0  0
    5.0276   -8.5227   17.5352 C   0  0  0  0  0  0  0  0  0  0  0  0
    9.8187   -2.0895   25.5800 C   0  0  0  0  0  0  0  0  0  0  0  0
    5.6473   -8.7216   15.3158 C   0  0  0  0  0  0  0  0  0  0  0  0
   10.7581   -3.1233   19.4720 N   0  0  0  0  0  0  0  0  0  0  0  0
    9.9571   -4.0573   16.8866 C   0  0  0  0  0  0  0  0  0  0  0  0
    7.6213   -6.5618   16.0087 C   0  0  0  0  0  0  0  0  0  0  0  0
   10.8583   -2.6527   20.7222 C   0  0  0  0  0  0  0  0  0  0  0  0
   10.6412   -3.5089   21.7936 C   0  0  0  0  0  0  0  0  0  0  0  0
   10.4972   -3.8968   24.1589 C   0  0  0  0  0  0  0  0  0  0  0  0
    5.9260   -8.2736   16.5517 C   0  0  0  0  0  0  0  0  0  0  0  0
    3.8816   -9.1166   17.2493 C   0  0  0  0  0  0  0  0  0  0  0  0
   10.1297   -1.6575   23.2324 C   0  0  0  0  0  0  0  0  0  0  0  0
    9.4684   -1.6929   26.7263 F   0  0  0  0  0  0  0  0  0  0  0  0
    7.7963   -7.7906   17.9837 C   0  0  0  0  0  0  0  0  0  0  0  0
   10.5884   -3.0725   16.7902 O   0  0  0  0  0  0  0  0  0  0  0  0
   10.4323   -5.3494   20.3516 C   0  0  0  0  0  0  0  0  0  0  0  0
    7.1156   -7.5454   16.8218 C   0  0  0  0  0  0  0  0  0  0  0  0
   10.3885   -4.4388   19.2773 C   0  0  0  0  0  0  0  0  0  0  0  0
    4.5160   -9.3822   15.0841 C   0  0  0  0  0  0  0  0  0  0  0  0
  1  3  4  0
  1 24  4  0
  2  6  4  0
  2 15  4  0
  3  5  4  0
  3  6  4  0
  4 21  4  0
  4 29  4  0
  5 15  4  0
  5 28  1  0
  6 16  4  0
  7 18  4  0
  7 26  4  0
  8 18  1  0
  8 19  4  0
  8 22  4  0
  9 12  4  0
  9 19  4  0
 10 12  4  0
 10 22  4  0
 11 20  4  0
 11 21  4  0
 12 23  1  0
 13 20  4  0
 13 29  4  0
 14 17  4  0
 14 28  4  0
 15 25  2  0
 16 27  4  0
 17 18  4  0
 20 27  1  0
 24 27  4  0
 26 28  4  0
M  END
$$$$

 Created by Python create_sdf_string function

 29 33  0  0  0  0  0  0  0  0999 V2000
    8.8270   -7.0288   18.4251 C   0  0  0  0  0  0  0  0  0  0  0  0
    9.1576   -4.6236   15.8860 O   0  0  0  0  0  0  0  0  0  0  0  0
    9.1509   -5.9108   17.7177 C   0  0  0  0  0  0  0  0  0  0  0  0
    3.6373   -9.5349   16.0582 N   0  0  0  0  0  0  0  0  0  0  0  0
    9.9275   -4.8001   18.0438 N   0  0  0  0  0  0  0  0  0  0  0  0
    8.5908   -5.7425   16.4412 C   0  0  0  0  0  0  0  0  0  0  0  0
   10.5993   -4.8981   21.6068 C   0  0  0  0  0  0  0  0  0  0  0  0
   10.4258   -3.0106   23.0998 C   0  0  0  0  0  0  0  0  0  0  0  0
   10.2148   -3.4364   25.4200 C   0  0  0  0  0  0  0  0  0  0  0  0
    9.7853   -1.1840   24.4927 C   0  0  0  0  0  0  0  0  0  0  0  0
    5.0276   -8.5227   17.5352 C   0  0  0  0  0  0  0  0  0  0  0  0
    9.8187   -2.0895   25.5800 C   0  0  0  0  0  0  0  0  0  0  0  0
    5.6473   -8.7216   15.3158 C   0  0  0  0  0  0  0  0  0  0  0  0
   10.7581   -3.1233   19.4720 N   0  0  0  0  0  0  0  0  0  0  0  0
    9.9571   -4.0573   16.8866 C   0  0  0  0  0  0  0  0  0  0  0  0
    7.6213   -6.5618   16.0087 C   0  0  0  0  0  0  0  0  0  0  0  0
   10.8583   -2.6527   20.7222 C   0  0  0  0  0  0  0  0  0  0  0  0
   10.6412   -3.5089   21.7936 C   0  0  0  0  0  0  0  0  0  0  0  0
   10.4972   -3.8968   24.1589 C   0  0  0  0  0  0  0  0  0  0  0  0
    5.9260   -8.2736   16.5517 C   0  0  0  0  0  0  0  0  0  0  0  0
    3.8816   -9.1166   17.2493 C   0  0  0  0  0  0  0  0  0  0  0  0
   10.1297   -1.6575   23.2324 C   0  0  0  0  0  0  0  0  0  0  0  0
    9.4684   -1.6929   26.7263 F   0  0  0  0  0  0  0  0  0  0  0  0
    7.7963   -7.7906   17.9837 C   0  0  0  0  0  0  0  0  0  0  0  0
   10.5884   -3.0725   16.7902 O   0  0  0  0  0  0  0  0  0  0  0  0
   10.4323   -5.3494   20.3516 C   0  0  0  0  0  0  0  0  0  0  0  0
    7.1156   -7.5454   16.8218 C   0  0  0  0  0  0  0  0  0  0  0  0
   10.3885   -4.4388   19.2773 C   0  0  0  0  0  0  0  0  0  0  0  0
    4.5160   -9.3822   15.0841 C   0  0  0  0  0  0  0  0  0  0  0  0
  1  3  4  0
  1 24  4  0
  2  6  4  0
  2 15  4  0
  3  5  4  0
  3  6  4  0
  4 21  4  0
  4 29  4  0
  5 15  4  0
  5 28  1  0
  6 16  4  0
  7 18  4  0
  7 26  4  0
  8 18  1  0
  8 19  4  0
  8 22  4  0
  9 12  4  0
  9 19  4  0
 10 12  4  0
 10 22  4  0
 11 20  4  0
 11 21  4  0
 12 23  1  0
 13 20  4  0
 13 29  4  0
 14 17  4  0
 14 28  4  0
 15 25  2  0
 16 27  4  0
 17 18  4  0
 20 27  1  0
 24 27  4  0
 26 28  4  0
M  END
$$$$

 Created by Python create_sdf_string function

 29 33  0  0  0  0  0  0  0  0999 V2000
    8.8270   -7.0288   18.4251 C   0  0  0  0  0  0  0  0  0  0  0  0
    9.1576   -4.6236   15.8860 O   0  0  0  0  0  0  0  0  0  0  0  0
    9.1509   -5.9108   17.7177 C   0  0  0  0  0  0  0  0  0  0  0  0
    3.6373   -9.5349   16.0582 N   0  0  0  0  0  0  0  0  0  0  0  0
    9.9275   -4.8001   18.0438 N   0  0  0  0  0  0  0  0  0  0  0  0
    8.5908   -5.7425   16.4412 C   0  0  0  0  0  0  0  0  0  0  0  0
   10.5993   -4.8981   21.6068 C   0  0  0  0  0  0  0  0  0  0  0  0
   10.4258   -3.0106   23.0998 C   0  0  0  0  0  0  0  0  0  0  0  0
   10.2148   -3.4364   25.4200 C   0  0  0  0  0  0  0  0  0  0  0  0
    9.7853   -1.1840   24.4927 C   0  0  0  0  0  0  0  0  0  0  0  0
    5.0276   -8.5227   17.5352 C   0  0  0  0  0  0  0  0  0  0  0  0
    9.8187   -2.0895   25.5800 C   0  0  0  0  0  0  0  0  0  0  0  0
    5.6473   -8.7216   15.3158 C   0  0  0  0  0  0  0  0  0  0  0  0
   10.7581   -3.1233   19.4720 N   0  0  0  0  0  0  0  0  0  0  0  0
    9.9571   -4.0573   16.8866 C   0  0  0  0  0  0  0  0  0  0  0  0
    7.6213   -6.5618   16.0087 C   0  0  0  0  0  0  0  0  0  0  0  0
   10.8583   -2.6527   20.7222 C   0  0  0  0  0  0  0  0  0  0  0  0
   10.6412   -3.5089   21.7936 C   0  0  0  0  0  0  0  0  0  0  0  0
   10.4972   -3.8968   24.1589 C   0  0  0  0  0  0  0  0  0  0  0  0
    5.9260   -8.2736   16.5517 C   0  0  0  0  0  0  0  0  0  0  0  0
    3.8816   -9.1166   17.2493 C   0  0  0  0  0  0  0  0  0  0  0  0
   10.1297   -1.6575   23.2324 C   0  0  0  0  0  0  0  0  0  0  0  0
    9.4684   -1.6929   26.7263 F   0  0  0  0  0  0  0  0  0  0  0  0
    7.7963   -7.7906   17.9837 C   0  0  0  0  0  0  0  0  0  0  0  0
   10.5884   -3.0725   16.7902 O   0  0  0  0  0  0  0  0  0  0  0  0
   10.4323   -5.3494   20.3516 C   0  0  0  0  0  0  0  0  0  0  0  0
    7.1156   -7.5454   16.8218 C   0  0  0  0  0  0  0  0  0  0  0  0
   10.3885   -4.4388   19.2773 C   0  0  0  0  0  0  0  0  0  0  0  0
    4.5160   -9.3822   15.0841 C   0  0  0  0  0  0  0  0  0  0  0  0
  1  3  4  0
  1 24  4  0
  2  6  4  0
  2 15  4  0
  3  5  4  0
  3  6  4  0
  4 21  4  0
  4 29  4  0
  5 15  4  0
  5 28  1  0
  6 16  4  0
  7 18  4  0
  7 26  4  0
  8 18  1  0
  8 19  4  0
  8 22  4  0
  9 12  4  0
  9 19  4  0
 10 12  4  0
 10 22  4  0
 11 20  4  0
 11 21  4  0
 12 23  1  0
 13 20  4  0
 13 29  4  0
 14 17  4  0
 14 28  4  0
 15 25  2  0
 16 27  4  0
 17 18  4  0
 20 27  1  0
 24 27  4  0
 26 28  4  0
M  END
$$$$

 Created by Python create_sdf_string function

 29 33  0  0  0  0  0  0  0  0999 V2000
    8.8270   -7.0288   18.4251 C   0  0  0  0  0  0  0  0  0  0  0  0
    9.1576   -4.6236   15.8860 O   0  0  0  0  0  0  0  0  0  0  0  0
    9.1509   -5.9108   17.7177 C   0  0  0  0  0  0  0  0  0  0  0  0
    3.6373   -9.5349   16.0582 N   0  0  0  0  0  0  0  0  0  0  0  0
    9.9275   -4.8001   18.0438 N   0  0  0  0  0  0  0  0  0  0  0  0
    8.5908   -5.7425   16.4412 C   0  0  0  0  0  0  0  0  0  0  0  0
   10.5993   -4.8981   21.6068 C   0  0  0  0  0  0  0  0  0  0  0  0
   10.4258   -3.0106   23.0998 C   0  0  0  0  0  0  0  0  0  0  0  0
   10.2148   -3.4364   25.4200 C   0  0  0  0  0  0  0  0  0  0  0  0
    9.7853   -1.1840   24.4927 C   0  0  0  0  0  0  0  0  0  0  0  0
    5.0276   -8.5227   17.5352 C   0  0  0  0  0  0  0  0  0  0  0  0
    9.8187   -2.0895   25.5800 C   0  0  0  0  0  0  0  0  0  0  0  0
    5.6473   -8.7216   15.3158 C   0  0  0  0  0  0  0  0  0  0  0  0
   10.7581   -3.1233   19.4720 N   0  0  0  0  0  0  0  0  0  0  0  0
    9.9571   -4.0573   16.8866 C   0  0  0  0  0  0  0  0  0  0  0  0
    7.6213   -6.5618   16.0087 C   0  0  0  0  0  0  0  0  0  0  0  0
   10.8583   -2.6527   20.7222 C   0  0  0  0  0  0  0  0  0  0  0  0
   10.6412   -3.5089   21.7936 C   0  0  0  0  0  0  0  0  0  0  0  0
   10.4972   -3.8968   24.1589 C   0  0  0  0  0  0  0  0  0  0  0  0
    5.9260   -8.2736   16.5517 C   0  0  0  0  0  0  0  0  0  0  0  0
    3.8816   -9.1166   17.2493 C   0  0  0  0  0  0  0  0  0  0  0  0
   10.1297   -1.6575   23.2324 C   0  0  0  0  0  0  0  0  0  0  0  0
    9.4684   -1.6929   26.7263 F   0  0  0  0  0  0  0  0  0  0  0  0
    7.7963   -7.7906   17.9837 C   0  0  0  0  0  0  0  0  0  0  0  0
   10.5884   -3.0725   16.7902 O   0  0  0  0  0  0  0  0  0  0  0  0
   10.4323   -5.3494   20.3516 C   0  0  0  0  0  0  0  0  0  0  0  0
    7.1156   -7.5454   16.8218 C   0  0  0  0  0  0  0  0  0  0  0  0
   10.3885   -4.4388   19.2773 C   0  0  0  0  0  0  0  0  0  0  0  0
    4.5160   -9.3822   15.0841 C   0  0  0  0  0  0  0  0  0  0  0  0
  1  3  4  0
  1 24  4  0
  2  6  4  0
  2 15  4  0
  3  5  4  0
  3  6  4  0
  4 21  4  0
  4 29  4  0
  5 15  4  0
  5 28  1  0
  6 16  4  0
  7 18  4  0
  7 26  4  0
  8 18  1  0
  8 19  4  0
  8 22  4  0
  9 12  4  0
  9 19  4  0
 10 12  4  0
 10 22  4  0
 11 20  4  0
 11 21  4  0
 12 23  1  0
 13 20  4  0
 13 29  4  0
 14 17  4  0
 14 28  4  0
 15 25  2  0
 16 27  4  0
 17 18  4  0
 20 27  1  0
 24 27  4  0
 26 28  4  0
M  END
$$$$

 Created by Python create_sdf_string function

 29 33  0  0  0  0  0  0  0  0999 V2000
    8.8270   -7.0288   18.4251 C   0  0  0  0  0  0  0  0  0  0  0  0
    9.1576   -4.6236   15.8860 O   0  0  0  0  0  0  0  0  0  0  0  0
    9.1509   -5.9108   17.7177 C   0  0  0  0  0  0  0  0  0  0  0  0
    3.6373   -9.5349   16.0582 N   0  0  0  0  0  0  0  0  0  0  0  0
    9.9275   -4.8001   18.0438 N   0  0  0  0  0  0  0  0  0  0  0  0
    8.5908   -5.7425   16.4412 C   0  0  0  0  0  0  0  0  0  0  0  0
   10.5993   -4.8981   21.6068 C   0  0  0  0  0  0  0  0  0  0  0  0
   10.4258   -3.0106   23.0998 C   0  0  0  0  0  0  0  0  0  0  0  0
   10.2148   -3.4364   25.4200 C   0  0  0  0  0  0  0  0  0  0  0  0
    9.7853   -1.1840   24.4927 C   0  0  0  0  0  0  0  0  0  0  0  0
    5.0276   -8.5227   17.5352 C   0  0  0  0  0  0  0  0  0  0  0  0
    9.8187   -2.0895   25.5800 C   0  0  0  0  0  0  0  0  0  0  0  0
    5.6473   -8.7216   15.3158 C   0  0  0  0  0  0  0  0  0  0  0  0
   10.7581   -3.1233   19.4720 N   0  0  0  0  0  0  0  0  0  0  0  0
    9.9571   -4.0573   16.8866 C   0  0  0  0  0  0  0  0  0  0  0  0
    7.6213   -6.5618   16.0087 C   0  0  0  0  0  0  0  0  0  0  0  0
   10.8583   -2.6527   20.7222 C   0  0  0  0  0  0  0  0  0  0  0  0
   10.6412   -3.5089   21.7936 C   0  0  0  0  0  0  0  0  0  0  0  0
   10.4972   -3.8968   24.1589 C   0  0  0  0  0  0  0  0  0  0  0  0
    5.9260   -8.2736   16.5517 C   0  0  0  0  0  0  0  0  0  0  0  0
    3.8816   -9.1166   17.2493 C   0  0  0  0  0  0  0  0  0  0  0  0
   10.1297   -1.6575   23.2324 C   0  0  0  0  0  0  0  0  0  0  0  0
    9.4684   -1.6929   26.7263 F   0  0  0  0  0  0  0  0  0  0  0  0
    7.7963   -7.7906   17.9837 C   0  0  0  0  0  0  0  0  0  0  0  0
   10.5884   -3.0725   16.7902 O   0  0  0  0  0  0  0  0  0  0  0  0
   10.4323   -5.3494   20.3516 C   0  0  0  0  0  0  0  0  0  0  0  0
    7.1156   -7.5454   16.8218 C   0  0  0  0  0  0  0  0  0  0  0  0
   10.3885   -4.4388   19.2773 C   0  0  0  0  0  0  0  0  0  0  0  0
    4.5160   -9.3822   15.0841 C   0  0  0  0  0  0  0  0  0  0  0  0
  1  3  4  0
  1 24  4  0
  2  6  4  0
  2 15  4  0
  3  5  4  0
  3  6  4  0
  4 21  4  0
  4 29  4  0
  5 15  4  0
  5 28  1  0
  6 16  4  0
  7 18  4  0
  7 26  4  0
  8 18  1  0
  8 19  4  0
  8 22  4  0
  9 12  4  0
  9 19  4  0
 10 12  4  0
 10 22  4  0
 11 20  4  0
 11 21  4  0
 12 23  1  0
 13 20  4  0
 13 29  4  0
 14 17  4  0
 14 28  4  0
 15 25  2  0
 16 27  4  0
 17 18  4  0
 20 27  1  0
 24 27  4  0
 26 28  4  0
M  END
$$$$

 Created by Python create_sdf_string function

 29 33  0  0  0  0  0  0  0  0999 V2000
    8.8270   -7.0288   18.4251 C   0  0  0  0  0  0  0  0  0  0  0  0
    9.1576   -4.6236   15.8860 O   0  0  0  0  0  0  0  0  0  0  0  0
    9.1509   -5.9108   17.7177 C   0  0  0  0  0  0  0  0  0  0  0  0
    3.6373   -9.5349   16.0582 N   0  0  0  0  0  0  0  0  0  0  0  0
    9.9275   -4.8001   18.0438 N   0  0  0  0  0  0  0  0  0  0  0  0
    8.5908   -5.7425   16.4412 C   0  0  0  0  0  0  0  0  0  0  0  0
   10.5993   -4.8981   21.6068 C   0  0  0  0  0  0  0  0  0  0  0  0
   10.4258   -3.0106   23.0998 C   0  0  0  0  0  0  0  0  0  0  0  0
   10.2148   -3.4364   25.4200 C   0  0  0  0  0  0  0  0  0  0  0  0
    9.7853   -1.1840   24.4927 C   0  0  0  0  0  0  0  0  0  0  0  0
    5.0276   -8.5227   17.5352 C   0  0  0  0  0  0  0  0  0  0  0  0
    9.8187   -2.0895   25.5800 C   0  0  0  0  0  0  0  0  0  0  0  0
    5.6473   -8.7216   15.3158 C   0  0  0  0  0  0  0  0  0  0  0  0
   10.7581   -3.1233   19.4720 N   0  0  0  0  0  0  0  0  0  0  0  0
    9.9571   -4.0573   16.8866 C   0  0  0  0  0  0  0  0  0  0  0  0
    7.6213   -6.5618   16.0087 C   0  0  0  0  0  0  0  0  0  0  0  0
   10.8583   -2.6527   20.7222 C   0  0  0  0  0  0  0  0  0  0  0  0
   10.6412   -3.5089   21.7936 C   0  0  0  0  0  0  0  0  0  0  0  0
   10.4972   -3.8968   24.1589 C   0  0  0  0  0  0  0  0  0  0  0  0
    5.9260   -8.2736   16.5517 C   0  0  0  0  0  0  0  0  0  0  0  0
    3.8816   -9.1166   17.2493 C   0  0  0  0  0  0  0  0  0  0  0  0
   10.1297   -1.6575   23.2324 C   0  0  0  0  0  0  0  0  0  0  0  0
    9.4684   -1.6929   26.7263 F   0  0  0  0  0  0  0  0  0  0  0  0
    7.7963   -7.7906   17.9837 C   0  0  0  0  0  0  0  0  0  0  0  0
   10.5884   -3.0725   16.7902 O   0  0  0  0  0  0  0  0  0  0  0  0
   10.4323   -5.3494   20.3516 C   0  0  0  0  0  0  0  0  0  0  0  0
    7.1156   -7.5454   16.8218 C   0  0  0  0  0  0  0  0  0  0  0  0
   10.3885   -4.4388   19.2773 C   0  0  0  0  0  0  0  0  0  0  0  0
    4.5160   -9.3822   15.0841 C   0  0  0  0  0  0  0  0  0  0  0  0
  1  3  4  0
  1 24  4  0
  2  6  4  0
  2 15  4  0
  3  5  4  0
  3  6  4  0
  4 21  4  0
  4 29  4  0
  5 15  4  0
  5 28  1  0
  6 16  4  0
  7 18  4  0
  7 26  4  0
  8 18  1  0
  8 19  4  0
  8 22  4  0
  9 12  4  0
  9 19  4  0
 10 12  4  0
 10 22  4  0
 11 20  4  0
 11 21  4  0
 12 23  1  0
 13 20  4  0
 13 29  4  0
 14 17  4  0
 14 28  4  0
 15 25  2  0
 16 27  4  0
 17 18  4  0
 20 27  1  0
 24 27  4  0
 26 28  4  0
M  END
$$$$

 Created by Python create_sdf_string function

 29 33  0  0  0  0  0  0  0  0999 V2000
    8.8270   -7.0288   18.4251 C   0  0  0  0  0  0  0  0  0  0  0  0
    9.1576   -4.6236   15.8860 O   0  0  0  0  0  0  0  0  0  0  0  0
    9.1509   -5.9108   17.7177 C   0  0  0  0  0  0  0  0  0  0  0  0
    3.6373   -9.5349   16.0582 N   0  0  0  0  0  0  0  0  0  0  0  0
    9.9275   -4.8001   18.0438 N   0  0  0  0  0  0  0  0  0  0  0  0
    8.5908   -5.7425   16.4412 C   0  0  0  0  0  0  0  0  0  0  0  0
   10.5993   -4.8981   21.6068 C   0  0  0  0  0  0  0  0  0  0  0  0
   10.4258   -3.0106   23.0998 C   0  0  0  0  0  0  0  0  0  0  0  0
   10.2148   -3.4364   25.4200 C   0  0  0  0  0  0  0  0  0  0  0  0
    9.7853   -1.1840   24.4927 C   0  0  0  0  0  0  0  0  0  0  0  0
    5.0276   -8.5227   17.5352 C   0  0  0  0  0  0  0  0  0  0  0  0
    9.8187   -2.0895   25.5800 C   0  0  0  0  0  0  0  0  0  0  0  0
    5.6473   -8.7216   15.3158 C   0  0  0  0  0  0  0  0  0  0  0  0
   10.7581   -3.1233   19.4720 N   0  0  0  0  0  0  0  0  0  0  0  0
    9.9571   -4.0573   16.8866 C   0  0  0  0  0  0  0  0  0  0  0  0
    7.6213   -6.5618   16.0087 C   0  0  0  0  0  0  0  0  0  0  0  0
   10.8583   -2.6527   20.7222 C   0  0  0  0  0  0  0  0  0  0  0  0
   10.6412   -3.5089   21.7936 C   0  0  0  0  0  0  0  0  0  0  0  0
   10.4972   -3.8968   24.1589 C   0  0  0  0  0  0  0  0  0  0  0  0
    5.9260   -8.2736   16.5517 C   0  0  0  0  0  0  0  0  0  0  0  0
    3.8816   -9.1166   17.2493 C   0  0  0  0  0  0  0  0  0  0  0  0
   10.1297   -1.6575   23.2324 C   0  0  0  0  0  0  0  0  0  0  0  0
    9.4684   -1.6929   26.7263 F   0  0  0  0  0  0  0  0  0  0  0  0
    7.7963   -7.7906   17.9837 C   0  0  0  0  0  0  0  0  0  0  0  0
   10.5884   -3.0725   16.7902 O   0  0  0  0  0  0  0  0  0  0  0  0
   10.4323   -5.3494   20.3516 C   0  0  0  0  0  0  0  0  0  0  0  0
    7.1156   -7.5454   16.8218 C   0  0  0  0  0  0  0  0  0  0  0  0
   10.3885   -4.4388   19.2773 C   0  0  0  0  0  0  0  0  0  0  0  0
    4.5160   -9.3822   15.0841 C   0  0  0  0  0  0  0  0  0  0  0  0
  1  3  4  0
  1 24  4  0
  2  6  4  0
  2 15  4  0
  3  5  4  0
  3  6  4  0
  4 21  4  0
  4 29  4  0
  5 15  4  0
  5 28  1  0
  6 16  4  0
  7 18  4  0
  7 26  4  0
  8 18  1  0
  8 19  4  0
  8 22  4  0
  9 12  4  0
  9 19  4  0
 10 12  4  0
 10 22  4  0
 11 20  4  0
 11 21  4  0
 12 23  1  0
 13 20  4  0
 13 29  4  0
 14 17  4  0
 14 28  4  0
 15 25  2  0
 16 27  4  0
 17 18  4  0
 20 27  1  0
 24 27  4  0
 26 28  4  0
M  END
$$$$

 Created by Python create_sdf_string function

 29 33  0  0  0  0  0  0  0  0999 V2000
    8.8270   -7.0288   18.4251 C   0  0  0  0  0  0  0  0  0  0  0  0
    9.1576   -4.6236   15.8860 O   0  0  0  0  0  0  0  0  0  0  0  0
    9.1509   -5.9108   17.7177 C   0  0  0  0  0  0  0  0  0  0  0  0
    3.6373   -9.5349   16.0582 N   0  0  0  0  0  0  0  0  0  0  0  0
    9.9275   -4.8001   18.0438 N   0  0  0  0  0  0  0  0  0  0  0  0
    8.5908   -5.7425   16.4412 C   0  0  0  0  0  0  0  0  0  0  0  0
   10.5993   -4.8981   21.6068 C   0  0  0  0  0  0  0  0  0  0  0  0
   10.4258   -3.0106   23.0998 C   0  0  0  0  0  0  0  0  0  0  0  0
   10.2148   -3.4364   25.4200 C   0  0  0  0  0  0  0  0  0  0  0  0
    9.7853   -1.1840   24.4927 C   0  0  0  0  0  0  0  0  0  0  0  0
    5.0276   -8.5227   17.5352 C   0  0  0  0  0  0  0  0  0  0  0  0
    9.8187   -2.0895   25.5800 C   0  0  0  0  0  0  0  0  0  0  0  0
    5.6473   -8.7216   15.3158 C   0  0  0  0  0  0  0  0  0  0  0  0
   10.7581   -3.1233   19.4720 N   0  0  0  0  0  0  0  0  0  0  0  0
    9.9571   -4.0573   16.8866 C   0  0  0  0  0  0  0  0  0  0  0  0
    7.6213   -6.5618   16.0087 C   0  0  0  0  0  0  0  0  0  0  0  0
   10.8583   -2.6527   20.7222 C   0  0  0  0  0  0  0  0  0  0  0  0
   10.6412   -3.5089   21.7936 C   0  0  0  0  0  0  0  0  0  0  0  0
   10.4972   -3.8968   24.1589 C   0  0  0  0  0  0  0  0  0  0  0  0
    5.9260   -8.2736   16.5517 C   0  0  0  0  0  0  0  0  0  0  0  0
    3.8816   -9.1166   17.2493 C   0  0  0  0  0  0  0  0  0  0  0  0
   10.1297   -1.6575   23.2324 C   0  0  0  0  0  0  0  0  0  0  0  0
    9.4684   -1.6929   26.7263 F   0  0  0  0  0  0  0  0  0  0  0  0
    7.7963   -7.7906   17.9837 C   0  0  0  0  0  0  0  0  0  0  0  0
   10.5884   -3.0725   16.7902 O   0  0  0  0  0  0  0  0  0  0  0  0
   10.4323   -5.3494   20.3516 C   0  0  0  0  0  0  0  0  0  0  0  0
    7.1156   -7.5454   16.8218 C   0  0  0  0  0  0  0  0  0  0  0  0
   10.3885   -4.4388   19.2773 C   0  0  0  0  0  0  0  0  0  0  0  0
    4.5160   -9.3822   15.0841 C   0  0  0  0  0  0  0  0  0  0  0  0
  1  3  4  0
  1 24  4  0
  2  6  4  0
  2 15  4  0
  3  5  4  0
  3  6  4  0
  4 21  4  0
  4 29  4  0
  5 15  4  0
  5 28  1  0
  6 16  4  0
  7 18  4  0
  7 26  4  0
  8 18  1  0
  8 19  4  0
  8 22  4  0
  9 12  4  0
  9 19  4  0
 10 12  4  0
 10 22  4  0
 11 20  4  0
 11 21  4  0
 12 23  1  0
 13 20  4  0
 13 29  4  0
 14 17  4  0
 14 28  4  0
 15 25  2  0
 16 27  4  0
 17 18  4  0
 20 27  1  0
 24 27  4  0
 26 28  4  0
M  END
$$$$

 Created by Python create_sdf_string function

 29 33  0  0  0  0  0  0  0  0999 V2000
    8.8270   -7.0288   18.4251 C   0  0  0  0  0  0  0  0  0  0  0  0
    9.1576   -4.6236   15.8860 O   0  0  0  0  0  0  0  0  0  0  0  0
    9.1509   -5.9108   17.7177 C   0  0  0  0  0  0  0  0  0  0  0  0
    3.6373   -9.5349   16.0582 N   0  0  0  0  0  0  0  0  0  0  0  0
    9.9275   -4.8001   18.0438 N   0  0  0  0  0  0  0  0  0  0  0  0
    8.5908   -5.7425   16.4412 C   0  0  0  0  0  0  0  0  0  0  0  0
   10.5993   -4.8981   21.6068 C   0  0  0  0  0  0  0  0  0  0  0  0
   10.4258   -3.0106   23.0998 C   0  0  0  0  0  0  0  0  0  0  0  0
   10.2148   -3.4364   25.4200 C   0  0  0  0  0  0  0  0  0  0  0  0
    9.7853   -1.1840   24.4927 C   0  0  0  0  0  0  0  0  0  0  0  0
    5.0276   -8.5227   17.5352 C   0  0  0  0  0  0  0  0  0  0  0  0
    9.8187   -2.0895   25.5800 C   0  0  0  0  0  0  0  0  0  0  0  0
    5.6473   -8.7216   15.3158 C   0  0  0  0  0  0  0  0  0  0  0  0
   10.7581   -3.1233   19.4720 N   0  0  0  0  0  0  0  0  0  0  0  0
    9.9571   -4.0573   16.8866 C   0  0  0  0  0  0  0  0  0  0  0  0
    7.6213   -6.5618   16.0087 C   0  0  0  0  0  0  0  0  0  0  0  0
   10.8583   -2.6527   20.7222 C   0  0  0  0  0  0  0  0  0  0  0  0
   10.6412   -3.5089   21.7936 C   0  0  0  0  0  0  0  0  0  0  0  0
   10.4972   -3.8968   24.1589 C   0  0  0  0  0  0  0  0  0  0  0  0
    5.9260   -8.2736   16.5517 C   0  0  0  0  0  0  0  0  0  0  0  0
    3.8816   -9.1166   17.2493 C   0  0  0  0  0  0  0  0  0  0  0  0
   10.1297   -1.6575   23.2324 C   0  0  0  0  0  0  0  0  0  0  0  0
    9.4684   -1.6929   26.7263 F   0  0  0  0  0  0  0  0  0  0  0  0
    7.7963   -7.7906   17.9837 C   0  0  0  0  0  0  0  0  0  0  0  0
   10.5884   -3.0725   16.7902 O   0  0  0  0  0  0  0  0  0  0  0  0
   10.4323   -5.3494   20.3516 C   0  0  0  0  0  0  0  0  0  0  0  0
    7.1156   -7.5454   16.8218 C   0  0  0  0  0  0  0  0  0  0  0  0
   10.3885   -4.4388   19.2773 C   0  0  0  0  0  0  0  0  0  0  0  0
    4.5160   -9.3822   15.0841 C   0  0  0  0  0  0  0  0  0  0  0  0
  1  3  4  0
  1 24  4  0
  2  6  4  0
  2 15  4  0
  3  5  4  0
  3  6  4  0
  4 21  4  0
  4 29  4  0
  5 15  4  0
  5 28  1  0
  6 16  4  0
  7 18  4  0
  7 26  4  0
  8 18  1  0
  8 19  4  0
  8 22  4  0
  9 12  4  0
  9 19  4  0
 10 12  4  0
 10 22  4  0
 11 20  4  0
 11 21  4  0
 12 23  1  0
 13 20  4  0
 13 29  4  0
 14 17  4  0
 14 28  4  0
 15 25  2  0
 16 27  4  0
 17 18  4  0
 20 27  1  0
 24 27  4  0
 26 28  4  0
M  END
$$$$

 Created by Python create_sdf_string function

 29 33  0  0  0  0  0  0  0  0999 V2000
    8.8270   -7.0288   18.4251 C   0  0  0  0  0  0  0  0  0  0  0  0
    9.1576   -4.6236   15.8860 O   0  0  0  0  0  0  0  0  0  0  0  0
    9.1509   -5.9108   17.7177 C   0  0  0  0  0  0  0  0  0  0  0  0
    3.6373   -9.5349   16.0582 N   0  0  0  0  0  0  0  0  0  0  0  0
    9.9275   -4.8001   18.0438 N   0  0  0  0  0  0  0  0  0  0  0  0
    8.5908   -5.7425   16.4412 C   0  0  0  0  0  0  0  0  0  0  0  0
   10.5993   -4.8981   21.6068 C   0  0  0  0  0  0  0  0  0  0  0  0
   10.4258   -3.0106   23.0998 C   0  0  0  0  0  0  0  0  0  0  0  0
   10.2148   -3.4364   25.4200 C   0  0  0  0  0  0  0  0  0  0  0  0
    9.7853   -1.1840   24.4927 C   0  0  0  0  0  0  0  0  0  0  0  0
    5.0276   -8.5227   17.5352 C   0  0  0  0  0  0  0  0  0  0  0  0
    9.8187   -2.0895   25.5800 C   0  0  0  0  0  0  0  0  0  0  0  0
    5.6473   -8.7216   15.3158 C   0  0  0  0  0  0  0  0  0  0  0  0
   10.7581   -3.1233   19.4720 N   0  0  0  0  0  0  0  0  0  0  0  0
    9.9571   -4.0573   16.8866 C   0  0  0  0  0  0  0  0  0  0  0  0
    7.6213   -6.5618   16.0087 C   0  0  0  0  0  0  0  0  0  0  0  0
   10.8583   -2.6527   20.7222 C   0  0  0  0  0  0  0  0  0  0  0  0
   10.6412   -3.5089   21.7936 C   0  0  0  0  0  0  0  0  0  0  0  0
   10.4972   -3.8968   24.1589 C   0  0  0  0  0  0  0  0  0  0  0  0
    5.9260   -8.2736   16.5517 C   0  0  0  0  0  0  0  0  0  0  0  0
    3.8816   -9.1166   17.2493 C   0  0  0  0  0  0  0  0  0  0  0  0
   10.1297   -1.6575   23.2324 C   0  0  0  0  0  0  0  0  0  0  0  0
    9.4684   -1.6929   26.7263 F   0  0  0  0  0  0  0  0  0  0  0  0
    7.7963   -7.7906   17.9837 C   0  0  0  0  0  0  0  0  0  0  0  0
   10.5884   -3.0725   16.7902 O   0  0  0  0  0  0  0  0  0  0  0  0
   10.4323   -5.3494   20.3516 C   0  0  0  0  0  0  0  0  0  0  0  0
    7.1156   -7.5454   16.8218 C   0  0  0  0  0  0  0  0  0  0  0  0
   10.3885   -4.4388   19.2773 C   0  0  0  0  0  0  0  0  0  0  0  0
    4.5160   -9.3822   15.0841 C   0  0  0  0  0  0  0  0  0  0  0  0
  1  3  4  0
  1 24  4  0
  2  6  4  0
  2 15  4  0
  3  5  4  0
  3  6  4  0
  4 21  4  0
  4 29  4  0
  5 15  4  0
  5 28  1  0
  6 16  4  0
  7 18  4  0
  7 26  4  0
  8 18  1  0
  8 19  4  0
  8 22  4  0
  9 12  4  0
  9 19  4  0
 10 12  4  0
 10 22  4  0
 11 20  4  0
 11 21  4  0
 12 23  1  0
 13 20  4  0
 13 29  4  0
 14 17  4  0
 14 28  4  0
 15 25  2  0
 16 27  4  0
 17 18  4  0
 20 27  1  0
 24 27  4  0
 26 28  4  0
M  END
$$$$

 Created by Python create_sdf_string function

 29 33  0  0  0  0  0  0  0  0999 V2000
    8.8270   -7.0288   18.4251 C   0  0  0  0  0  0  0  0  0  0  0  0
    9.1576   -4.6236   15.8860 O   0  0  0  0  0  0  0  0  0  0  0  0
    9.1509   -5.9108   17.7177 C   0  0  0  0  0  0  0  0  0  0  0  0
    3.6373   -9.5349   16.0582 N   0  0  0  0  0  0  0  0  0  0  0  0
    9.9275   -4.8001   18.0438 N   0  0  0  0  0  0  0  0  0  0  0  0
    8.5908   -5.7425   16.4412 C   0  0  0  0  0  0  0  0  0  0  0  0
   10.5993   -4.8981   21.6068 C   0  0  0  0  0  0  0  0  0  0  0  0
   10.4258   -3.0106   23.0998 C   0  0  0  0  0  0  0  0  0  0  0  0
   10.2148   -3.4364   25.4200 C   0  0  0  0  0  0  0  0  0  0  0  0
    9.7853   -1.1840   24.4927 C   0  0  0  0  0  0  0  0  0  0  0  0
    5.0276   -8.5227   17.5352 C   0  0  0  0  0  0  0  0  0  0  0  0
    9.8187   -2.0895   25.5800 C   0  0  0  0  0  0  0  0  0  0  0  0
    5.6473   -8.7216   15.3158 C   0  0  0  0  0  0  0  0  0  0  0  0
   10.7581   -3.1233   19.4720 N   0  0  0  0  0  0  0  0  0  0  0  0
    9.9571   -4.0573   16.8866 C   0  0  0  0  0  0  0  0  0  0  0  0
    7.6213   -6.5618   16.0087 C   0  0  0  0  0  0  0  0  0  0  0  0
   10.8583   -2.6527   20.7222 C   0  0  0  0  0  0  0  0  0  0  0  0
   10.6412   -3.5089   21.7936 C   0  0  0  0  0  0  0  0  0  0  0  0
   10.4972   -3.8968   24.1589 C   0  0  0  0  0  0  0  0  0  0  0  0
    5.9260   -8.2736   16.5517 C   0  0  0  0  0  0  0  0  0  0  0  0
    3.8816   -9.1166   17.2493 C   0  0  0  0  0  0  0  0  0  0  0  0
   10.1297   -1.6575   23.2324 C   0  0  0  0  0  0  0  0  0  0  0  0
    9.4684   -1.6929   26.7263 F   0  0  0  0  0  0  0  0  0  0  0  0
    7.7963   -7.7906   17.9837 C   0  0  0  0  0  0  0  0  0  0  0  0
   10.5884   -3.0725   16.7902 O   0  0  0  0  0  0  0  0  0  0  0  0
   10.4323   -5.3494   20.3516 C   0  0  0  0  0  0  0  0  0  0  0  0
    7.1156   -7.5454   16.8218 C   0  0  0  0  0  0  0  0  0  0  0  0
   10.3885   -4.4388   19.2773 C   0  0  0  0  0  0  0  0  0  0  0  0
    4.5160   -9.3822   15.0841 C   0  0  0  0  0  0  0  0  0  0  0  0
  1  3  4  0
  1 24  4  0
  2  6  4  0
  2 15  4  0
  3  5  4  0
  3  6  4  0
  4 21  4  0
  4 29  4  0
  5 15  4  0
  5 28  1  0
  6 16  4  0
  7 18  4  0
  7 26  4  0
  8 18  1  0
  8 19  4  0
  8 22  4  0
  9 12  4  0
  9 19  4  0
 10 12  4  0
 10 22  4  0
 11 20  4  0
 11 21  4  0
 12 23  1  0
 13 20  4  0
 13 29  4  0
 14 17  4  0
 14 28  4  0
 15 25  2  0
 16 27  4  0
 17 18  4  0
 20 27  1  0
 24 27  4  0
 26 28  4  0
M  END
$$$$

 Created by Python create_sdf_string function

 29 33  0  0  0  0  0  0  0  0999 V2000
    8.8270   -7.0288   18.4251 C   0  0  0  0  0  0  0  0  0  0  0  0
    9.1576   -4.6236   15.8860 O   0  0  0  0  0  0  0  0  0  0  0  0
    9.1509   -5.9108   17.7177 C   0  0  0  0  0  0  0  0  0  0  0  0
    3.6373   -9.5349   16.0582 N   0  0  0  0  0  0  0  0  0  0  0  0
    9.9275   -4.8001   18.0438 N   0  0  0  0  0  0  0  0  0  0  0  0
    8.5908   -5.7425   16.4412 C   0  0  0  0  0  0  0  0  0  0  0  0
   10.5993   -4.8981   21.6068 C   0  0  0  0  0  0  0  0  0  0  0  0
   10.4258   -3.0106   23.0998 C   0  0  0  0  0  0  0  0  0  0  0  0
   10.2148   -3.4364   25.4200 C   0  0  0  0  0  0  0  0  0  0  0  0
    9.7853   -1.1840   24.4927 C   0  0  0  0  0  0  0  0  0  0  0  0
    5.0276   -8.5227   17.5352 C   0  0  0  0  0  0  0  0  0  0  0  0
    9.8187   -2.0895   25.5800 C   0  0  0  0  0  0  0  0  0  0  0  0
    5.6473   -8.7216   15.3158 C   0  0  0  0  0  0  0  0  0  0  0  0
   10.7581   -3.1233   19.4720 N   0  0  0  0  0  0  0  0  0  0  0  0
    9.9571   -4.0573   16.8866 C   0  0  0  0  0  0  0  0  0  0  0  0
    7.6213   -6.5618   16.0087 C   0  0  0  0  0  0  0  0  0  0  0  0
   10.8583   -2.6527   20.7222 C   0  0  0  0  0  0  0  0  0  0  0  0
   10.6412   -3.5089   21.7936 C   0  0  0  0  0  0  0  0  0  0  0  0
   10.4972   -3.8968   24.1589 C   0  0  0  0  0  0  0  0  0  0  0  0
    5.9260   -8.2736   16.5517 C   0  0  0  0  0  0  0  0  0  0  0  0
    3.8816   -9.1166   17.2493 C   0  0  0  0  0  0  0  0  0  0  0  0
   10.1297   -1.6575   23.2324 C   0  0  0  0  0  0  0  0  0  0  0  0
    9.4684   -1.6929   26.7263 F   0  0  0  0  0  0  0  0  0  0  0  0
    7.7963   -7.7906   17.9837 C   0  0  0  0  0  0  0  0  0  0  0  0
   10.5884   -3.0725   16.7902 O   0  0  0  0  0  0  0  0  0  0  0  0
   10.4323   -5.3494   20.3516 C   0  0  0  0  0  0  0  0  0  0  0  0
    7.1156   -7.5454   16.8218 C   0  0  0  0  0  0  0  0  0  0  0  0
   10.3885   -4.4388   19.2773 C   0  0  0  0  0  0  0  0  0  0  0  0
    4.5160   -9.3822   15.0841 C   0  0  0  0  0  0  0  0  0  0  0  0
  1  3  4  0
  1 24  4  0
  2  6  4  0
  2 15  4  0
  3  5  4  0
  3  6  4  0
  4 21  4  0
  4 29  4  0
  5 15  4  0
  5 28  1  0
  6 16  4  0
  7 18  4  0
  7 26  4  0
  8 18  1  0
  8 19  4  0
  8 22  4  0
  9 12  4  0
  9 19  4  0
 10 12  4  0
 10 22  4  0
 11 20  4  0
 11 21  4  0
 12 23  1  0
 13 20  4  0
 13 29  4  0
 14 17  4  0
 14 28  4  0
 15 25  2  0
 16 27  4  0
 17 18  4  0
 20 27  1  0
 24 27  4  0
 26 28  4  0
M  END
$$$$

 Created by Python create_sdf_string function

 29 33  0  0  0  0  0  0  0  0999 V2000
    8.8270   -7.0288   18.4251 C   0  0  0  0  0  0  0  0  0  0  0  0
    9.1576   -4.6236   15.8860 O   0  0  0  0  0  0  0  0  0  0  0  0
    9.1509   -5.9108   17.7177 C   0  0  0  0  0  0  0  0  0  0  0  0
    3.6373   -9.5349   16.0582 N   0  0  0  0  0  0  0  0  0  0  0  0
    9.9275   -4.8001   18.0438 N   0  0  0  0  0  0  0  0  0  0  0  0
    8.5908   -5.7425   16.4412 C   0  0  0  0  0  0  0  0  0  0  0  0
   10.5993   -4.8981   21.6068 C   0  0  0  0  0  0  0  0  0  0  0  0
   10.4258   -3.0106   23.0998 C   0  0  0  0  0  0  0  0  0  0  0  0
   10.2148   -3.4364   25.4200 C   0  0  0  0  0  0  0  0  0  0  0  0
    9.7853   -1.1840   24.4927 C   0  0  0  0  0  0  0  0  0  0  0  0
    5.0276   -8.5227   17.5352 C   0  0  0  0  0  0  0  0  0  0  0  0
    9.8187   -2.0895   25.5800 C   0  0  0  0  0  0  0  0  0  0  0  0
    5.6473   -8.7216   15.3158 C   0  0  0  0  0  0  0  0  0  0  0  0
   10.7581   -3.1233   19.4720 N   0  0  0  0  0  0  0  0  0  0  0  0
    9.9571   -4.0573   16.8866 C   0  0  0  0  0  0  0  0  0  0  0  0
    7.6213   -6.5618   16.0087 C   0  0  0  0  0  0  0  0  0  0  0  0
   10.8583   -2.6527   20.7222 C   0  0  0  0  0  0  0  0  0  0  0  0
   10.6412   -3.5089   21.7936 C   0  0  0  0  0  0  0  0  0  0  0  0
   10.4972   -3.8968   24.1589 C   0  0  0  0  0  0  0  0  0  0  0  0
    5.9260   -8.2736   16.5517 C   0  0  0  0  0  0  0  0  0  0  0  0
    3.8816   -9.1166   17.2493 C   0  0  0  0  0  0  0  0  0  0  0  0
   10.1297   -1.6575   23.2324 C   0  0  0  0  0  0  0  0  0  0  0  0
    9.4684   -1.6929   26.7263 F   0  0  0  0  0  0  0  0  0  0  0  0
    7.7963   -7.7906   17.9837 C   0  0  0  0  0  0  0  0  0  0  0  0
   10.5884   -3.0725   16.7902 O   0  0  0  0  0  0  0  0  0  0  0  0
   10.4323   -5.3494   20.3516 C   0  0  0  0  0  0  0  0  0  0  0  0
    7.1156   -7.5454   16.8218 C   0  0  0  0  0  0  0  0  0  0  0  0
   10.3885   -4.4388   19.2773 C   0  0  0  0  0  0  0  0  0  0  0  0
    4.5160   -9.3822   15.0841 C   0  0  0  0  0  0  0  0  0  0  0  0
  1  3  4  0
  1 24  4  0
  2  6  4  0
  2 15  4  0
  3  5  4  0
  3  6  4  0
  4 21  4  0
  4 29  4  0
  5 15  4  0
  5 28  1  0
  6 16  4  0
  7 18  4  0
  7 26  4  0
  8 18  1  0
  8 19  4  0
  8 22  4  0
  9 12  4  0
  9 19  4  0
 10 12  4  0
 10 22  4  0
 11 20  4  0
 11 21  4  0
 12 23  1  0
 13 20  4  0
 13 29  4  0
 14 17  4  0
 14 28  4  0
 15 25  2  0
 16 27  4  0
 17 18  4  0
 20 27  1  0
 24 27  4  0
 26 28  4  0
M  END
$$$$

 Created by Python create_sdf_string function

 29 33  0  0  0  0  0  0  0  0999 V2000
    8.8270   -7.0288   18.4251 C   0  0  0  0  0  0  0  0  0  0  0  0
    9.1576   -4.6236   15.8860 O   0  0  0  0  0  0  0  0  0  0  0  0
    9.1509   -5.9108   17.7177 C   0  0  0  0  0  0  0  0  0  0  0  0
    3.6373   -9.5349   16.0582 N   0  0  0  0  0  0  0  0  0  0  0  0
    9.9275   -4.8001   18.0438 N   0  0  0  0  0  0  0  0  0  0  0  0
    8.5908   -5.7425   16.4412 C   0  0  0  0  0  0  0  0  0  0  0  0
   10.5993   -4.8981   21.6068 C   0  0  0  0  0  0  0  0  0  0  0  0
   10.4258   -3.0106   23.0998 C   0  0  0  0  0  0  0  0  0  0  0  0
   10.2148   -3.4364   25.4200 C   0  0  0  0  0  0  0  0  0  0  0  0
    9.7853   -1.1840   24.4927 C   0  0  0  0  0  0  0  0  0  0  0  0
    5.0276   -8.5227   17.5352 C   0  0  0  0  0  0  0  0  0  0  0  0
    9.8187   -2.0895   25.5800 C   0  0  0  0  0  0  0  0  0  0  0  0
    5.6473   -8.7216   15.3158 C   0  0  0  0  0  0  0  0  0  0  0  0
   10.7581   -3.1233   19.4720 N   0  0  0  0  0  0  0  0  0  0  0  0
    9.9571   -4.0573   16.8866 C   0  0  0  0  0  0  0  0  0  0  0  0
    7.6213   -6.5618   16.0087 C   0  0  0  0  0  0  0  0  0  0  0  0
   10.8583   -2.6527   20.7222 C   0  0  0  0  0  0  0  0  0  0  0  0
   10.6412   -3.5089   21.7936 C   0  0  0  0  0  0  0  0  0  0  0  0
   10.4972   -3.8968   24.1589 C   0  0  0  0  0  0  0  0  0  0  0  0
    5.9260   -8.2736   16.5517 C   0  0  0  0  0  0  0  0  0  0  0  0
    3.8816   -9.1166   17.2493 C   0  0  0  0  0  0  0  0  0  0  0  0
   10.1297   -1.6575   23.2324 C   0  0  0  0  0  0  0  0  0  0  0  0
    9.4684   -1.6929   26.7263 F   0  0  0  0  0  0  0  0  0  0  0  0
    7.7963   -7.7906   17.9837 C   0  0  0  0  0  0  0  0  0  0  0  0
   10.5884   -3.0725   16.7902 O   0  0  0  0  0  0  0  0  0  0  0  0
   10.4323   -5.3494   20.3516 C   0  0  0  0  0  0  0  0  0  0  0  0
    7.1156   -7.5454   16.8218 C   0  0  0  0  0  0  0  0  0  0  0  0
   10.3885   -4.4388   19.2773 C   0  0  0  0  0  0  0  0  0  0  0  0
    4.5160   -9.3822   15.0841 C   0  0  0  0  0  0  0  0  0  0  0  0
  1  3  4  0
  1 24  4  0
  2  6  4  0
  2 15  4  0
  3  5  4  0
  3  6  4  0
  4 21  4  0
  4 29  4  0
  5 15  4  0
  5 28  1  0
  6 16  4  0
  7 18  4  0
  7 26  4  0
  8 18  1  0
  8 19  4  0
  8 22  4  0
  9 12  4  0
  9 19  4  0
 10 12  4  0
 10 22  4  0
 11 20  4  0
 11 21  4  0
 12 23  1  0
 13 20  4  0
 13 29  4  0
 14 17  4  0
 14 28  4  0
 15 25  2  0
 16 27  4  0
 17 18  4  0
 20 27  1  0
 24 27  4  0
 26 28  4  0
M  END
$$$$

 Created by Python create_sdf_string function

 29 33  0  0  0  0  0  0  0  0999 V2000
    8.8270   -7.0288   18.4251 C   0  0  0  0  0  0  0  0  0  0  0  0
    9.1576   -4.6236   15.8860 O   0  0  0  0  0  0  0  0  0  0  0  0
    9.1509   -5.9108   17.7177 C   0  0  0  0  0  0  0  0  0  0  0  0
    3.6373   -9.5349   16.0582 N   0  0  0  0  0  0  0  0  0  0  0  0
    9.9275   -4.8001   18.0438 N   0  0  0  0  0  0  0  0  0  0  0  0
    8.5908   -5.7425   16.4412 C   0  0  0  0  0  0  0  0  0  0  0  0
   10.5993   -4.8981   21.6068 C   0  0  0  0  0  0  0  0  0  0  0  0
   10.4258   -3.0106   23.0998 C   0  0  0  0  0  0  0  0  0  0  0  0
   10.2148   -3.4364   25.4200 C   0  0  0  0  0  0  0  0  0  0  0  0
    9.7853   -1.1840   24.4927 C   0  0  0  0  0  0  0  0  0  0  0  0
    5.0276   -8.5227   17.5352 C   0  0  0  0  0  0  0  0  0  0  0  0
    9.8187   -2.0895   25.5800 C   0  0  0  0  0  0  0  0  0  0  0  0
    5.6473   -8.7216   15.3158 C   0  0  0  0  0  0  0  0  0  0  0  0
   10.7581   -3.1233   19.4720 N   0  0  0  0  0  0  0  0  0  0  0  0
    9.9571   -4.0573   16.8866 C   0  0  0  0  0  0  0  0  0  0  0  0
    7.6213   -6.5618   16.0087 C   0  0  0  0  0  0  0  0  0  0  0  0
   10.8583   -2.6527   20.7222 C   0  0  0  0  0  0  0  0  0  0  0  0
   10.6412   -3.5089   21.7936 C   0  0  0  0  0  0  0  0  0  0  0  0
   10.4972   -3.8968   24.1589 C   0  0  0  0  0  0  0  0  0  0  0  0
    5.9260   -8.2736   16.5517 C   0  0  0  0  0  0  0  0  0  0  0  0
    3.8816   -9.1166   17.2493 C   0  0  0  0  0  0  0  0  0  0  0  0
   10.1297   -1.6575   23.2324 C   0  0  0  0  0  0  0  0  0  0  0  0
    9.4684   -1.6929   26.7263 F   0  0  0  0  0  0  0  0  0  0  0  0
    7.7963   -7.7906   17.9837 C   0  0  0  0  0  0  0  0  0  0  0  0
   10.5884   -3.0725   16.7902 O   0  0  0  0  0  0  0  0  0  0  0  0
   10.4323   -5.3494   20.3516 C   0  0  0  0  0  0  0  0  0  0  0  0
    7.1156   -7.5454   16.8218 C   0  0  0  0  0  0  0  0  0  0  0  0
   10.3885   -4.4388   19.2773 C   0  0  0  0  0  0  0  0  0  0  0  0
    4.5160   -9.3822   15.0841 C   0  0  0  0  0  0  0  0  0  0  0  0
  1  3  4  0
  1 24  4  0
  2  6  4  0
  2 15  4  0
  3  5  4  0
  3  6  4  0
  4 21  4  0
  4 29  4  0
  5 15  4  0
  5 28  1  0
  6 16  4  0
  7 18  4  0
  7 26  4  0
  8 18  1  0
  8 19  4  0
  8 22  4  0
  9 12  4  0
  9 19  4  0
 10 12  4  0
 10 22  4  0
 11 20  4  0
 11 21  4  0
 12 23  1  0
 13 20  4  0
 13 29  4  0
 14 17  4  0
 14 28  4  0
 15 25  2  0
 16 27  4  0
 17 18  4  0
 20 27  1  0
 24 27  4  0
 26 28  4  0
M  END
$$$$

 Created by Python create_sdf_string function

 29 33  0  0  0  0  0  0  0  0999 V2000
    8.8270   -7.0288   18.4251 C   0  0  0  0  0  0  0  0  0  0  0  0
    9.1576   -4.6236   15.8860 O   0  0  0  0  0  0  0  0  0  0  0  0
    9.1509   -5.9108   17.7177 C   0  0  0  0  0  0  0  0  0  0  0  0
    3.6373   -9.5349   16.0582 N   0  0  0  0  0  0  0  0  0  0  0  0
    9.9275   -4.8001   18.0438 N   0  0  0  0  0  0  0  0  0  0  0  0
    8.5908   -5.7425   16.4412 C   0  0  0  0  0  0  0  0  0  0  0  0
   10.5993   -4.8981   21.6068 C   0  0  0  0  0  0  0  0  0  0  0  0
   10.4258   -3.0106   23.0998 C   0  0  0  0  0  0  0  0  0  0  0  0
   10.2148   -3.4364   25.4200 C   0  0  0  0  0  0  0  0  0  0  0  0
    9.7853   -1.1840   24.4927 C   0  0  0  0  0  0  0  0  0  0  0  0
    5.0276   -8.5227   17.5352 C   0  0  0  0  0  0  0  0  0  0  0  0
    9.8187   -2.0895   25.5800 C   0  0  0  0  0  0  0  0  0  0  0  0
    5.6473   -8.7216   15.3158 C   0  0  0  0  0  0  0  0  0  0  0  0
   10.7581   -3.1233   19.4720 N   0  0  0  0  0  0  0  0  0  0  0  0
    9.9571   -4.0573   16.8866 C   0  0  0  0  0  0  0  0  0  0  0  0
    7.6213   -6.5618   16.0087 C   0  0  0  0  0  0  0  0  0  0  0  0
   10.8583   -2.6527   20.7222 C   0  0  0  0  0  0  0  0  0  0  0  0
   10.6412   -3.5089   21.7936 C   0  0  0  0  0  0  0  0  0  0  0  0
   10.4972   -3.8968   24.1589 C   0  0  0  0  0  0  0  0  0  0  0  0
    5.9260   -8.2736   16.5517 C   0  0  0  0  0  0  0  0  0  0  0  0
    3.8816   -9.1166   17.2493 C   0  0  0  0  0  0  0  0  0  0  0  0
   10.1297   -1.6575   23.2324 C   0  0  0  0  0  0  0  0  0  0  0  0
    9.4684   -1.6929   26.7263 F   0  0  0  0  0  0  0  0  0  0  0  0
    7.7963   -7.7906   17.9837 C   0  0  0  0  0  0  0  0  0  0  0  0
   10.5884   -3.0725   16.7902 O   0  0  0  0  0  0  0  0  0  0  0  0
   10.4323   -5.3494   20.3516 C   0  0  0  0  0  0  0  0  0  0  0  0
    7.1156   -7.5454   16.8218 C   0  0  0  0  0  0  0  0  0  0  0  0
   10.3885   -4.4388   19.2773 C   0  0  0  0  0  0  0  0  0  0  0  0
    4.5160   -9.3822   15.0841 C   0  0  0  0  0  0  0  0  0  0  0  0
  1  3  4  0
  1 24  4  0
  2  6  4  0
  2 15  4  0
  3  5  4  0
  3  6  4  0
  4 21  4  0
  4 29  4  0
  5 15  4  0
  5 28  1  0
  6 16  4  0
  7 18  4  0
  7 26  4  0
  8 18  1  0
  8 19  4  0
  8 22  4  0
  9 12  4  0
  9 19  4  0
 10 12  4  0
 10 22  4  0
 11 20  4  0
 11 21  4  0
 12 23  1  0
 13 20  4  0
 13 29  4  0
 14 17  4  0
 14 28  4  0
 15 25  2  0
 16 27  4  0
 17 18  4  0
 20 27  1  0
 24 27  4  0
 26 28  4  0
M  END
$$$$

 Created by Python create_sdf_string function

 29 33  0  0  0  0  0  0  0  0999 V2000
    8.8270   -7.0288   18.4251 C   0  0  0  0  0  0  0  0  0  0  0  0
    9.1576   -4.6236   15.8860 O   0  0  0  0  0  0  0  0  0  0  0  0
    9.1509   -5.9108   17.7177 C   0  0  0  0  0  0  0  0  0  0  0  0
    3.6373   -9.5349   16.0582 N   0  0  0  0  0  0  0  0  0  0  0  0
    9.9275   -4.8001   18.0438 N   0  0  0  0  0  0  0  0  0  0  0  0
    8.5908   -5.7425   16.4412 C   0  0  0  0  0  0  0  0  0  0  0  0
   10.5993   -4.8981   21.6068 C   0  0  0  0  0  0  0  0  0  0  0  0
   10.4258   -3.0106   23.0998 C   0  0  0  0  0  0  0  0  0  0  0  0
   10.2148   -3.4364   25.4200 C   0  0  0  0  0  0  0  0  0  0  0  0
    9.7853   -1.1840   24.4927 C   0  0  0  0  0  0  0  0  0  0  0  0
    5.0276   -8.5227   17.5352 C   0  0  0  0  0  0  0  0  0  0  0  0
    9.8187   -2.0895   25.5800 C   0  0  0  0  0  0  0  0  0  0  0  0
    5.6473   -8.7216   15.3158 C   0  0  0  0  0  0  0  0  0  0  0  0
   10.7581   -3.1233   19.4720 N   0  0  0  0  0  0  0  0  0  0  0  0
    9.9571   -4.0573   16.8866 C   0  0  0  0  0  0  0  0  0  0  0  0
    7.6213   -6.5618   16.0087 C   0  0  0  0  0  0  0  0  0  0  0  0
   10.8583   -2.6527   20.7222 C   0  0  0  0  0  0  0  0  0  0  0  0
   10.6412   -3.5089   21.7936 C   0  0  0  0  0  0  0  0  0  0  0  0
   10.4972   -3.8968   24.1589 C   0  0  0  0  0  0  0  0  0  0  0  0
    5.9260   -8.2736   16.5517 C   0  0  0  0  0  0  0  0  0  0  0  0
    3.8816   -9.1166   17.2493 C   0  0  0  0  0  0  0  0  0  0  0  0
   10.1297   -1.6575   23.2324 C   0  0  0  0  0  0  0  0  0  0  0  0
    9.4684   -1.6929   26.7263 F   0  0  0  0  0  0  0  0  0  0  0  0
    7.7963   -7.7906   17.9837 C   0  0  0  0  0  0  0  0  0  0  0  0
   10.5884   -3.0725   16.7902 O   0  0  0  0  0  0  0  0  0  0  0  0
   10.4323   -5.3494   20.3516 C   0  0  0  0  0  0  0  0  0  0  0  0
    7.1156   -7.5454   16.8218 C   0  0  0  0  0  0  0  0  0  0  0  0
   10.3885   -4.4388   19.2773 C   0  0  0  0  0  0  0  0  0  0  0  0
    4.5160   -9.3822   15.0841 C   0  0  0  0  0  0  0  0  0  0  0  0
  1  3  4  0
  1 24  4  0
  2  6  4  0
  2 15  4  0
  3  5  4  0
  3  6  4  0
  4 21  4  0
  4 29  4  0
  5 15  4  0
  5 28  1  0
  6 16  4  0
  7 18  4  0
  7 26  4  0
  8 18  1  0
  8 19  4  0
  8 22  4  0
  9 12  4  0
  9 19  4  0
 10 12  4  0
 10 22  4  0
 11 20  4  0
 11 21  4  0
 12 23  1  0
 13 20  4  0
 13 29  4  0
 14 17  4  0
 14 28  4  0
 15 25  2  0
 16 27  4  0
 17 18  4  0
 20 27  1  0
 24 27  4  0
 26 28  4  0
M  END
$$$$

 Created by Python create_sdf_string function

 29 33  0  0  0  0  0  0  0  0999 V2000
    8.8270   -7.0288   18.4251 C   0  0  0  0  0  0  0  0  0  0  0  0
    9.1576   -4.6236   15.8860 O   0  0  0  0  0  0  0  0  0  0  0  0
    9.1509   -5.9108   17.7177 C   0  0  0  0  0  0  0  0  0  0  0  0
    3.6373   -9.5349   16.0582 N   0  0  0  0  0  0  0  0  0  0  0  0
    9.9275   -4.8001   18.0438 N   0  0  0  0  0  0  0  0  0  0  0  0
    8.5908   -5.7425   16.4412 C   0  0  0  0  0  0  0  0  0  0  0  0
   10.5993   -4.8981   21.6068 C   0  0  0  0  0  0  0  0  0  0  0  0
   10.4258   -3.0106   23.0998 C   0  0  0  0  0  0  0  0  0  0  0  0
   10.2148   -3.4364   25.4200 C   0  0  0  0  0  0  0  0  0  0  0  0
    9.7853   -1.1840   24.4927 C   0  0  0  0  0  0  0  0  0  0  0  0
    5.0276   -8.5227   17.5352 C   0  0  0  0  0  0  0  0  0  0  0  0
    9.8187   -2.0895   25.5800 C   0  0  0  0  0  0  0  0  0  0  0  0
    5.6473   -8.7216   15.3158 C   0  0  0  0  0  0  0  0  0  0  0  0
   10.7581   -3.1233   19.4720 N   0  0  0  0  0  0  0  0  0  0  0  0
    9.9571   -4.0573   16.8866 C   0  0  0  0  0  0  0  0  0  0  0  0
    7.6213   -6.5618   16.0087 C   0  0  0  0  0  0  0  0  0  0  0  0
   10.8583   -2.6527   20.7222 C   0  0  0  0  0  0  0  0  0  0  0  0
   10.6412   -3.5089   21.7936 C   0  0  0  0  0  0  0  0  0  0  0  0
   10.4972   -3.8968   24.1589 C   0  0  0  0  0  0  0  0  0  0  0  0
    5.9260   -8.2736   16.5517 C   0  0  0  0  0  0  0  0  0  0  0  0
    3.8816   -9.1166   17.2493 C   0  0  0  0  0  0  0  0  0  0  0  0
   10.1297   -1.6575   23.2324 C   0  0  0  0  0  0  0  0  0  0  0  0
    9.4684   -1.6929   26.7263 F   0  0  0  0  0  0  0  0  0  0  0  0
    7.7963   -7.7906   17.9837 C   0  0  0  0  0  0  0  0  0  0  0  0
   10.5884   -3.0725   16.7902 O   0  0  0  0  0  0  0  0  0  0  0  0
   10.4323   -5.3494   20.3516 C   0  0  0  0  0  0  0  0  0  0  0  0
    7.1156   -7.5454   16.8218 C   0  0  0  0  0  0  0  0  0  0  0  0
   10.3885   -4.4388   19.2773 C   0  0  0  0  0  0  0  0  0  0  0  0
    4.5160   -9.3822   15.0841 C   0  0  0  0  0  0  0  0  0  0  0  0
  1  3  4  0
  1 24  4  0
  2  6  4  0
  2 15  4  0
  3  5  4  0
  3  6  4  0
  4 21  4  0
  4 29  4  0
  5 15  4  0
  5 28  1  0
  6 16  4  0
  7 18  4  0
  7 26  4  0
  8 18  1  0
  8 19  4  0
  8 22  4  0
  9 12  4  0
  9 19  4  0
 10 12  4  0
 10 22  4  0
 11 20  4  0
 11 21  4  0
 12 23  1  0
 13 20  4  0
 13 29  4  0
 14 17  4  0
 14 28  4  0
 15 25  2  0
 16 27  4  0
 17 18  4  0
 20 27  1  0
 24 27  4  0
 26 28  4  0
M  END
$$$$

 Created by Python create_sdf_string function

 29 33  0  0  0  0  0  0  0  0999 V2000
    8.8270   -7.0288   18.4251 C   0  0  0  0  0  0  0  0  0  0  0  0
    9.1576   -4.6236   15.8860 O   0  0  0  0  0  0  0  0  0  0  0  0
    9.1509   -5.9108   17.7177 C   0  0  0  0  0  0  0  0  0  0  0  0
    3.6373   -9.5349   16.0582 N   0  0  0  0  0  0  0  0  0  0  0  0
    9.9275   -4.8001   18.0438 N   0  0  0  0  0  0  0  0  0  0  0  0
    8.5908   -5.7425   16.4412 C   0  0  0  0  0  0  0  0  0  0  0  0
   10.5993   -4.8981   21.6068 C   0  0  0  0  0  0  0  0  0  0  0  0
   10.4258   -3.0106   23.0998 C   0  0  0  0  0  0  0  0  0  0  0  0
   10.2148   -3.4364   25.4200 C   0  0  0  0  0  0  0  0  0  0  0  0
    9.7853   -1.1840   24.4927 C   0  0  0  0  0  0  0  0  0  0  0  0
    5.0276   -8.5227   17.5352 C   0  0  0  0  0  0  0  0  0  0  0  0
    9.8187   -2.0895   25.5800 C   0  0  0  0  0  0  0  0  0  0  0  0
    5.6473   -8.7216   15.3158 C   0  0  0  0  0  0  0  0  0  0  0  0
   10.7581   -3.1233   19.4720 N   0  0  0  0  0  0  0  0  0  0  0  0
    9.9571   -4.0573   16.8866 C   0  0  0  0  0  0  0  0  0  0  0  0
    7.6213   -6.5618   16.0087 C   0  0  0  0  0  0  0  0  0  0  0  0
   10.8583   -2.6527   20.7222 C   0  0  0  0  0  0  0  0  0  0  0  0
   10.6412   -3.5089   21.7936 C   0  0  0  0  0  0  0  0  0  0  0  0
   10.4972   -3.8968   24.1589 C   0  0  0  0  0  0  0  0  0  0  0  0
    5.9260   -8.2736   16.5517 C   0  0  0  0  0  0  0  0  0  0  0  0
    3.8816   -9.1166   17.2493 C   0  0  0  0  0  0  0  0  0  0  0  0
   10.1297   -1.6575   23.2324 C   0  0  0  0  0  0  0  0  0  0  0  0
    9.4684   -1.6929   26.7263 F   0  0  0  0  0  0  0  0  0  0  0  0
    7.7963   -7.7906   17.9837 C   0  0  0  0  0  0  0  0  0  0  0  0
   10.5884   -3.0725   16.7902 O   0  0  0  0  0  0  0  0  0  0  0  0
   10.4323   -5.3494   20.3516 C   0  0  0  0  0  0  0  0  0  0  0  0
    7.1156   -7.5454   16.8218 C   0  0  0  0  0  0  0  0  0  0  0  0
   10.3885   -4.4388   19.2773 C   0  0  0  0  0  0  0  0  0  0  0  0
    4.5160   -9.3822   15.0841 C   0  0  0  0  0  0  0  0  0  0  0  0
  1  3  4  0
  1 24  4  0
  2  6  4  0
  2 15  4  0
  3  5  4  0
  3  6  4  0
  4 21  4  0
  4 29  4  0
  5 15  4  0
  5 28  1  0
  6 16  4  0
  7 18  4  0
  7 26  4  0
  8 18  1  0
  8 19  4  0
  8 22  4  0
  9 12  4  0
  9 19  4  0
 10 12  4  0
 10 22  4  0
 11 20  4  0
 11 21  4  0
 12 23  1  0
 13 20  4  0
 13 29  4  0
 14 17  4  0
 14 28  4  0
 15 25  2  0
 16 27  4  0
 17 18  4  0
 20 27  1  0
 24 27  4  0
 26 28  4  0
M  END
$$$$

 Created by Python create_sdf_string function

 29 33  0  0  0  0  0  0  0  0999 V2000
    8.8270   -7.0288   18.4251 C   0  0  0  0  0  0  0  0  0  0  0  0
    9.1576   -4.6236   15.8860 O   0  0  0  0  0  0  0  0  0  0  0  0
    9.1509   -5.9108   17.7177 C   0  0  0  0  0  0  0  0  0  0  0  0
    3.6373   -9.5349   16.0582 N   0  0  0  0  0  0  0  0  0  0  0  0
    9.9275   -4.8001   18.0438 N   0  0  0  0  0  0  0  0  0  0  0  0
    8.5908   -5.7425   16.4412 C   0  0  0  0  0  0  0  0  0  0  0  0
   10.5993   -4.8981   21.6068 C   0  0  0  0  0  0  0  0  0  0  0  0
   10.4258   -3.0106   23.0998 C   0  0  0  0  0  0  0  0  0  0  0  0
   10.2148   -3.4364   25.4200 C   0  0  0  0  0  0  0  0  0  0  0  0
    9.7853   -1.1840   24.4927 C   0  0  0  0  0  0  0  0  0  0  0  0
    5.0276   -8.5227   17.5352 C   0  0  0  0  0  0  0  0  0  0  0  0
    9.8187   -2.0895   25.5800 C   0  0  0  0  0  0  0  0  0  0  0  0
    5.6473   -8.7216   15.3158 C   0  0  0  0  0  0  0  0  0  0  0  0
   10.7581   -3.1233   19.4720 N   0  0  0  0  0  0  0  0  0  0  0  0
    9.9571   -4.0573   16.8866 C   0  0  0  0  0  0  0  0  0  0  0  0
    7.6213   -6.5618   16.0087 C   0  0  0  0  0  0  0  0  0  0  0  0
   10.8583   -2.6527   20.7222 C   0  0  0  0  0  0  0  0  0  0  0  0
   10.6412   -3.5089   21.7936 C   0  0  0  0  0  0  0  0  0  0  0  0
   10.4972   -3.8968   24.1589 C   0  0  0  0  0  0  0  0  0  0  0  0
    5.9260   -8.2736   16.5517 C   0  0  0  0  0  0  0  0  0  0  0  0
    3.8816   -9.1166   17.2493 C   0  0  0  0  0  0  0  0  0  0  0  0
   10.1297   -1.6575   23.2324 C   0  0  0  0  0  0  0  0  0  0  0  0
    9.4684   -1.6929   26.7263 F   0  0  0  0  0  0  0  0  0  0  0  0
    7.7963   -7.7906   17.9837 C   0  0  0  0  0  0  0  0  0  0  0  0
   10.5884   -3.0725   16.7902 O   0  0  0  0  0  0  0  0  0  0  0  0
   10.4323   -5.3494   20.3516 C   0  0  0  0  0  0  0  0  0  0  0  0
    7.1156   -7.5454   16.8218 C   0  0  0  0  0  0  0  0  0  0  0  0
   10.3885   -4.4388   19.2773 C   0  0  0  0  0  0  0  0  0  0  0  0
    4.5160   -9.3822   15.0841 C   0  0  0  0  0  0  0  0  0  0  0  0
  1  3  4  0
  1 24  4  0
  2  6  4  0
  2 15  4  0
  3  5  4  0
  3  6  4  0
  4 21  4  0
  4 29  4  0
  5 15  4  0
  5 28  1  0
  6 16  4  0
  7 18  4  0
  7 26  4  0
  8 18  1  0
  8 19  4  0
  8 22  4  0
  9 12  4  0
  9 19  4  0
 10 12  4  0
 10 22  4  0
 11 20  4  0
 11 21  4  0
 12 23  1  0
 13 20  4  0
 13 29  4  0
 14 17  4  0
 14 28  4  0
 15 25  2  0
 16 27  4  0
 17 18  4  0
 20 27  1  0
 24 27  4  0
 26 28  4  0
M  END
$$$$

 Created by Python create_sdf_string function

 29 33  0  0  0  0  0  0  0  0999 V2000
    8.8270   -7.0288   18.4251 C   0  0  0  0  0  0  0  0  0  0  0  0
    9.1576   -4.6236   15.8860 O   0  0  0  0  0  0  0  0  0  0  0  0
    9.1509   -5.9108   17.7177 C   0  0  0  0  0  0  0  0  0  0  0  0
    3.6373   -9.5349   16.0582 N   0  0  0  0  0  0  0  0  0  0  0  0
    9.9275   -4.8001   18.0438 N   0  0  0  0  0  0  0  0  0  0  0  0
    8.5908   -5.7425   16.4412 C   0  0  0  0  0  0  0  0  0  0  0  0
   10.5993   -4.8981   21.6068 C   0  0  0  0  0  0  0  0  0  0  0  0
   10.4258   -3.0106   23.0998 C   0  0  0  0  0  0  0  0  0  0  0  0
   10.2148   -3.4364   25.4200 C   0  0  0  0  0  0  0  0  0  0  0  0
    9.7853   -1.1840   24.4927 C   0  0  0  0  0  0  0  0  0  0  0  0
    5.0276   -8.5227   17.5352 C   0  0  0  0  0  0  0  0  0  0  0  0
    9.8187   -2.0895   25.5800 C   0  0  0  0  0  0  0  0  0  0  0  0
    5.6473   -8.7216   15.3158 C   0  0  0  0  0  0  0  0  0  0  0  0
   10.7581   -3.1233   19.4720 N   0  0  0  0  0  0  0  0  0  0  0  0
    9.9571   -4.0573   16.8866 C   0  0  0  0  0  0  0  0  0  0  0  0
    7.6213   -6.5618   16.0087 C   0  0  0  0  0  0  0  0  0  0  0  0
   10.8583   -2.6527   20.7222 C   0  0  0  0  0  0  0  0  0  0  0  0
   10.6412   -3.5089   21.7936 C   0  0  0  0  0  0  0  0  0  0  0  0
   10.4972   -3.8968   24.1589 C   0  0  0  0  0  0  0  0  0  0  0  0
    5.9260   -8.2736   16.5517 C   0  0  0  0  0  0  0  0  0  0  0  0
    3.8816   -9.1166   17.2493 C   0  0  0  0  0  0  0  0  0  0  0  0
   10.1297   -1.6575   23.2324 C   0  0  0  0  0  0  0  0  0  0  0  0
    9.4684   -1.6929   26.7263 F   0  0  0  0  0  0  0  0  0  0  0  0
    7.7963   -7.7906   17.9837 C   0  0  0  0  0  0  0  0  0  0  0  0
   10.5884   -3.0725   16.7902 O   0  0  0  0  0  0  0  0  0  0  0  0
   10.4323   -5.3494   20.3516 C   0  0  0  0  0  0  0  0  0  0  0  0
    7.1156   -7.5454   16.8218 C   0  0  0  0  0  0  0  0  0  0  0  0
   10.3885   -4.4388   19.2773 C   0  0  0  0  0  0  0  0  0  0  0  0
    4.5160   -9.3822   15.0841 C   0  0  0  0  0  0  0  0  0  0  0  0
  1  3  4  0
  1 24  4  0
  2  6  4  0
  2 15  4  0
  3  5  4  0
  3  6  4  0
  4 21  4  0
  4 29  4  0
  5 15  4  0
  5 28  1  0
  6 16  4  0
  7 18  4  0
  7 26  4  0
  8 18  1  0
  8 19  4  0
  8 22  4  0
  9 12  4  0
  9 19  4  0
 10 12  4  0
 10 22  4  0
 11 20  4  0
 11 21  4  0
 12 23  1  0
 13 20  4  0
 13 29  4  0
 14 17  4  0
 14 28  4  0
 15 25  2  0
 16 27  4  0
 17 18  4  0
 20 27  1  0
 24 27  4  0
 26 28  4  0
M  END
$$$$

 Created by Python create_sdf_string function

 29 33  0  0  0  0  0  0  0  0999 V2000
    8.8270   -7.0288   18.4251 C   0  0  0  0  0  0  0  0  0  0  0  0
    9.1576   -4.6236   15.8860 O   0  0  0  0  0  0  0  0  0  0  0  0
    9.1509   -5.9108   17.7177 C   0  0  0  0  0  0  0  0  0  0  0  0
    3.6373   -9.5349   16.0582 N   0  0  0  0  0  0  0  0  0  0  0  0
    9.9275   -4.8001   18.0438 N   0  0  0  0  0  0  0  0  0  0  0  0
    8.5908   -5.7425   16.4412 C   0  0  0  0  0  0  0  0  0  0  0  0
   10.5993   -4.8981   21.6068 C   0  0  0  0  0  0  0  0  0  0  0  0
   10.4258   -3.0106   23.0998 C   0  0  0  0  0  0  0  0  0  0  0  0
   10.2148   -3.4364   25.4200 C   0  0  0  0  0  0  0  0  0  0  0  0
    9.7853   -1.1840   24.4927 C   0  0  0  0  0  0  0  0  0  0  0  0
    5.0276   -8.5227   17.5352 C   0  0  0  0  0  0  0  0  0  0  0  0
    9.8187   -2.0895   25.5800 C   0  0  0  0  0  0  0  0  0  0  0  0
    5.6473   -8.7216   15.3158 C   0  0  0  0  0  0  0  0  0  0  0  0
   10.7581   -3.1233   19.4720 N   0  0  0  0  0  0  0  0  0  0  0  0
    9.9571   -4.0573   16.8866 C   0  0  0  0  0  0  0  0  0  0  0  0
    7.6213   -6.5618   16.0087 C   0  0  0  0  0  0  0  0  0  0  0  0
   10.8583   -2.6527   20.7222 C   0  0  0  0  0  0  0  0  0  0  0  0
   10.6412   -3.5089   21.7936 C   0  0  0  0  0  0  0  0  0  0  0  0
   10.4972   -3.8968   24.1589 C   0  0  0  0  0  0  0  0  0  0  0  0
    5.9260   -8.2736   16.5517 C   0  0  0  0  0  0  0  0  0  0  0  0
    3.8816   -9.1166   17.2493 C   0  0  0  0  0  0  0  0  0  0  0  0
   10.1297   -1.6575   23.2324 C   0  0  0  0  0  0  0  0  0  0  0  0
    9.4684   -1.6929   26.7263 F   0  0  0  0  0  0  0  0  0  0  0  0
    7.7963   -7.7906   17.9837 C   0  0  0  0  0  0  0  0  0  0  0  0
   10.5884   -3.0725   16.7902 O   0  0  0  0  0  0  0  0  0  0  0  0
   10.4323   -5.3494   20.3516 C   0  0  0  0  0  0  0  0  0  0  0  0
    7.1156   -7.5454   16.8218 C   0  0  0  0  0  0  0  0  0  0  0  0
   10.3885   -4.4388   19.2773 C   0  0  0  0  0  0  0  0  0  0  0  0
    4.5160   -9.3822   15.0841 C   0  0  0  0  0  0  0  0  0  0  0  0
  1  3  4  0
  1 24  4  0
  2  6  4  0
  2 15  4  0
  3  5  4  0
  3  6  4  0
  4 21  4  0
  4 29  4  0
  5 15  4  0
  5 28  1  0
  6 16  4  0
  7 18  4  0
  7 26  4  0
  8 18  1  0
  8 19  4  0
  8 22  4  0
  9 12  4  0
  9 19  4  0
 10 12  4  0
 10 22  4  0
 11 20  4  0
 11 21  4  0
 12 23  1  0
 13 20  4  0
 13 29  4  0
 14 17  4  0
 14 28  4  0
 15 25  2  0
 16 27  4  0
 17 18  4  0
 20 27  1  0
 24 27  4  0
 26 28  4  0
M  END
$$$$

 Created by Python create_sdf_string function

 29 33  0  0  0  0  0  0  0  0999 V2000
    8.8270   -7.0288   18.4251 C   0  0  0  0  0  0  0  0  0  0  0  0
    9.1576   -4.6236   15.8860 O   0  0  0  0  0  0  0  0  0  0  0  0
    9.1509   -5.9108   17.7177 C   0  0  0  0  0  0  0  0  0  0  0  0
    3.6373   -9.5349   16.0582 N   0  0  0  0  0  0  0  0  0  0  0  0
    9.9275   -4.8001   18.0438 N   0  0  0  0  0  0  0  0  0  0  0  0
    8.5908   -5.7425   16.4412 C   0  0  0  0  0  0  0  0  0  0  0  0
   10.5993   -4.8981   21.6068 C   0  0  0  0  0  0  0  0  0  0  0  0
   10.4258   -3.0106   23.0998 C   0  0  0  0  0  0  0  0  0  0  0  0
   10.2148   -3.4364   25.4200 C   0  0  0  0  0  0  0  0  0  0  0  0
    9.7853   -1.1840   24.4927 C   0  0  0  0  0  0  0  0  0  0  0  0
    5.0276   -8.5227   17.5352 C   0  0  0  0  0  0  0  0  0  0  0  0
    9.8187   -2.0895   25.5800 C   0  0  0  0  0  0  0  0  0  0  0  0
    5.6473   -8.7216   15.3158 C   0  0  0  0  0  0  0  0  0  0  0  0
   10.7581   -3.1233   19.4720 N   0  0  0  0  0  0  0  0  0  0  0  0
    9.9571   -4.0573   16.8866 C   0  0  0  0  0  0  0  0  0  0  0  0
    7.6213   -6.5618   16.0087 C   0  0  0  0  0  0  0  0  0  0  0  0
   10.8583   -2.6527   20.7222 C   0  0  0  0  0  0  0  0  0  0  0  0
   10.6412   -3.5089   21.7936 C   0  0  0  0  0  0  0  0  0  0  0  0
   10.4972   -3.8968   24.1589 C   0  0  0  0  0  0  0  0  0  0  0  0
    5.9260   -8.2736   16.5517 C   0  0  0  0  0  0  0  0  0  0  0  0
    3.8816   -9.1166   17.2493 C   0  0  0  0  0  0  0  0  0  0  0  0
   10.1297   -1.6575   23.2324 C   0  0  0  0  0  0  0  0  0  0  0  0
    9.4684   -1.6929   26.7263 F   0  0  0  0  0  0  0  0  0  0  0  0
    7.7963   -7.7906   17.9837 C   0  0  0  0  0  0  0  0  0  0  0  0
   10.5884   -3.0725   16.7902 O   0  0  0  0  0  0  0  0  0  0  0  0
   10.4323   -5.3494   20.3516 C   0  0  0  0  0  0  0  0  0  0  0  0
    7.1156   -7.5454   16.8218 C   0  0  0  0  0  0  0  0  0  0  0  0
   10.3885   -4.4388   19.2773 C   0  0  0  0  0  0  0  0  0  0  0  0
    4.5160   -9.3822   15.0841 C   0  0  0  0  0  0  0  0  0  0  0  0
  1  3  4  0
  1 24  4  0
  2  6  4  0
  2 15  4  0
  3  5  4  0
  3  6  4  0
  4 21  4  0
  4 29  4  0
  5 15  4  0
  5 28  1  0
  6 16  4  0
  7 18  4  0
  7 26  4  0
  8 18  1  0
  8 19  4  0
  8 22  4  0
  9 12  4  0
  9 19  4  0
 10 12  4  0
 10 22  4  0
 11 20  4  0
 11 21  4  0
 12 23  1  0
 13 20  4  0
 13 29  4  0
 14 17  4  0
 14 28  4  0
 15 25  2  0
 16 27  4  0
 17 18  4  0
 20 27  1  0
 24 27  4  0
 26 28  4  0
M  END
$$$$

 Created by Python create_sdf_string function

 29 33  0  0  0  0  0  0  0  0999 V2000
    8.8270   -7.0288   18.4251 C   0  0  0  0  0  0  0  0  0  0  0  0
    9.1576   -4.6236   15.8860 O   0  0  0  0  0  0  0  0  0  0  0  0
    9.1509   -5.9108   17.7177 C   0  0  0  0  0  0  0  0  0  0  0  0
    3.6373   -9.5349   16.0582 N   0  0  0  0  0  0  0  0  0  0  0  0
    9.9275   -4.8001   18.0438 N   0  0  0  0  0  0  0  0  0  0  0  0
    8.5908   -5.7425   16.4412 C   0  0  0  0  0  0  0  0  0  0  0  0
   10.5993   -4.8981   21.6068 C   0  0  0  0  0  0  0  0  0  0  0  0
   10.4258   -3.0106   23.0998 C   0  0  0  0  0  0  0  0  0  0  0  0
   10.2148   -3.4364   25.4200 C   0  0  0  0  0  0  0  0  0  0  0  0
    9.7853   -1.1840   24.4927 C   0  0  0  0  0  0  0  0  0  0  0  0
    5.0276   -8.5227   17.5352 C   0  0  0  0  0  0  0  0  0  0  0  0
    9.8187   -2.0895   25.5800 C   0  0  0  0  0  0  0  0  0  0  0  0
    5.6473   -8.7216   15.3158 C   0  0  0  0  0  0  0  0  0  0  0  0
   10.7581   -3.1233   19.4720 N   0  0  0  0  0  0  0  0  0  0  0  0
    9.9571   -4.0573   16.8866 C   0  0  0  0  0  0  0  0  0  0  0  0
    7.6213   -6.5618   16.0087 C   0  0  0  0  0  0  0  0  0  0  0  0
   10.8583   -2.6527   20.7222 C   0  0  0  0  0  0  0  0  0  0  0  0
   10.6412   -3.5089   21.7936 C   0  0  0  0  0  0  0  0  0  0  0  0
   10.4972   -3.8968   24.1589 C   0  0  0  0  0  0  0  0  0  0  0  0
    5.9260   -8.2736   16.5517 C   0  0  0  0  0  0  0  0  0  0  0  0
    3.8816   -9.1166   17.2493 C   0  0  0  0  0  0  0  0  0  0  0  0
   10.1297   -1.6575   23.2324 C   0  0  0  0  0  0  0  0  0  0  0  0
    9.4684   -1.6929   26.7263 F   0  0  0  0  0  0  0  0  0  0  0  0
    7.7963   -7.7906   17.9837 C   0  0  0  0  0  0  0  0  0  0  0  0
   10.5884   -3.0725   16.7902 O   0  0  0  0  0  0  0  0  0  0  0  0
   10.4323   -5.3494   20.3516 C   0  0  0  0  0  0  0  0  0  0  0  0
    7.1156   -7.5454   16.8218 C   0  0  0  0  0  0  0  0  0  0  0  0
   10.3885   -4.4388   19.2773 C   0  0  0  0  0  0  0  0  0  0  0  0
    4.5160   -9.3822   15.0841 C   0  0  0  0  0  0  0  0  0  0  0  0
  1  3  4  0
  1 24  4  0
  2  6  4  0
  2 15  4  0
  3  5  4  0
  3  6  4  0
  4 21  4  0
  4 29  4  0
  5 15  4  0
  5 28  1  0
  6 16  4  0
  7 18  4  0
  7 26  4  0
  8 18  1  0
  8 19  4  0
  8 22  4  0
  9 12  4  0
  9 19  4  0
 10 12  4  0
 10 22  4  0
 11 20  4  0
 11 21  4  0
 12 23  1  0
 13 20  4  0
 13 29  4  0
 14 17  4  0
 14 28  4  0
 15 25  2  0
 16 27  4  0
 17 18  4  0
 20 27  1  0
 24 27  4  0
 26 28  4  0
M  END
$$$$

 Created by Python create_sdf_string function

 29 33  0  0  0  0  0  0  0  0999 V2000
    8.8270   -7.0288   18.4251 C   0  0  0  0  0  0  0  0  0  0  0  0
    9.1576   -4.6236   15.8860 O   0  0  0  0  0  0  0  0  0  0  0  0
    9.1509   -5.9108   17.7177 C   0  0  0  0  0  0  0  0  0  0  0  0
    3.6373   -9.5349   16.0582 N   0  0  0  0  0  0  0  0  0  0  0  0
    9.9275   -4.8001   18.0438 N   0  0  0  0  0  0  0  0  0  0  0  0
    8.5908   -5.7425   16.4412 C   0  0  0  0  0  0  0  0  0  0  0  0
   10.5993   -4.8981   21.6068 C   0  0  0  0  0  0  0  0  0  0  0  0
   10.4258   -3.0106   23.0998 C   0  0  0  0  0  0  0  0  0  0  0  0
   10.2148   -3.4364   25.4200 C   0  0  0  0  0  0  0  0  0  0  0  0
    9.7853   -1.1840   24.4927 C   0  0  0  0  0  0  0  0  0  0  0  0
    5.0276   -8.5227   17.5352 C   0  0  0  0  0  0  0  0  0  0  0  0
    9.8187   -2.0895   25.5800 C   0  0  0  0  0  0  0  0  0  0  0  0
    5.6473   -8.7216   15.3158 C   0  0  0  0  0  0  0  0  0  0  0  0
   10.7581   -3.1233   19.4720 N   0  0  0  0  0  0  0  0  0  0  0  0
    9.9571   -4.0573   16.8866 C   0  0  0  0  0  0  0  0  0  0  0  0
    7.6213   -6.5618   16.0087 C   0  0  0  0  0  0  0  0  0  0  0  0
   10.8583   -2.6527   20.7222 C   0  0  0  0  0  0  0  0  0  0  0  0
   10.6412   -3.5089   21.7936 C   0  0  0  0  0  0  0  0  0  0  0  0
   10.4972   -3.8968   24.1589 C   0  0  0  0  0  0  0  0  0  0  0  0
    5.9260   -8.2736   16.5517 C   0  0  0  0  0  0  0  0  0  0  0  0
    3.8816   -9.1166   17.2493 C   0  0  0  0  0  0  0  0  0  0  0  0
   10.1297   -1.6575   23.2324 C   0  0  0  0  0  0  0  0  0  0  0  0
    9.4684   -1.6929   26.7263 F   0  0  0  0  0  0  0  0  0  0  0  0
    7.7963   -7.7906   17.9837 C   0  0  0  0  0  0  0  0  0  0  0  0
   10.5884   -3.0725   16.7902 O   0  0  0  0  0  0  0  0  0  0  0  0
   10.4323   -5.3494   20.3516 C   0  0  0  0  0  0  0  0  0  0  0  0
    7.1156   -7.5454   16.8218 C   0  0  0  0  0  0  0  0  0  0  0  0
   10.3885   -4.4388   19.2773 C   0  0  0  0  0  0  0  0  0  0  0  0
    4.5160   -9.3822   15.0841 C   0  0  0  0  0  0  0  0  0  0  0  0
  1  3  4  0
  1 24  4  0
  2  6  4  0
  2 15  4  0
  3  5  4  0
  3  6  4  0
  4 21  4  0
  4 29  4  0
  5 15  4  0
  5 28  1  0
  6 16  4  0
  7 18  4  0
  7 26  4  0
  8 18  1  0
  8 19  4  0
  8 22  4  0
  9 12  4  0
  9 19  4  0
 10 12  4  0
 10 22  4  0
 11 20  4  0
 11 21  4  0
 12 23  1  0
 13 20  4  0
 13 29  4  0
 14 17  4  0
 14 28  4  0
 15 25  2  0
 16 27  4  0
 17 18  4  0
 20 27  1  0
 24 27  4  0
 26 28  4  0
M  END
$$$$

 Created by Python create_sdf_string function

 29 33  0  0  0  0  0  0  0  0999 V2000
    8.8270   -7.0288   18.4251 C   0  0  0  0  0  0  0  0  0  0  0  0
    9.1576   -4.6236   15.8860 O   0  0  0  0  0  0  0  0  0  0  0  0
    9.1509   -5.9108   17.7177 C   0  0  0  0  0  0  0  0  0  0  0  0
    3.6373   -9.5349   16.0582 N   0  0  0  0  0  0  0  0  0  0  0  0
    9.9275   -4.8001   18.0438 N   0  0  0  0  0  0  0  0  0  0  0  0
    8.5908   -5.7425   16.4412 C   0  0  0  0  0  0  0  0  0  0  0  0
   10.5993   -4.8981   21.6068 C   0  0  0  0  0  0  0  0  0  0  0  0
   10.4258   -3.0106   23.0998 C   0  0  0  0  0  0  0  0  0  0  0  0
   10.2148   -3.4364   25.4200 C   0  0  0  0  0  0  0  0  0  0  0  0
    9.7853   -1.1840   24.4927 C   0  0  0  0  0  0  0  0  0  0  0  0
    5.0276   -8.5227   17.5352 C   0  0  0  0  0  0  0  0  0  0  0  0
    9.8187   -2.0895   25.5800 C   0  0  0  0  0  0  0  0  0  0  0  0
    5.6473   -8.7216   15.3158 C   0  0  0  0  0  0  0  0  0  0  0  0
   10.7581   -3.1233   19.4720 N   0  0  0  0  0  0  0  0  0  0  0  0
    9.9571   -4.0573   16.8866 C   0  0  0  0  0  0  0  0  0  0  0  0
    7.6213   -6.5618   16.0087 C   0  0  0  0  0  0  0  0  0  0  0  0
   10.8583   -2.6527   20.7222 C   0  0  0  0  0  0  0  0  0  0  0  0
   10.6412   -3.5089   21.7936 C   0  0  0  0  0  0  0  0  0  0  0  0
   10.4972   -3.8968   24.1589 C   0  0  0  0  0  0  0  0  0  0  0  0
    5.9260   -8.2736   16.5517 C   0  0  0  0  0  0  0  0  0  0  0  0
    3.8816   -9.1166   17.2493 C   0  0  0  0  0  0  0  0  0  0  0  0
   10.1297   -1.6575   23.2324 C   0  0  0  0  0  0  0  0  0  0  0  0
    9.4684   -1.6929   26.7263 F   0  0  0  0  0  0  0  0  0  0  0  0
    7.7963   -7.7906   17.9837 C   0  0  0  0  0  0  0  0  0  0  0  0
   10.5884   -3.0725   16.7902 O   0  0  0  0  0  0  0  0  0  0  0  0
   10.4323   -5.3494   20.3516 C   0  0  0  0  0  0  0  0  0  0  0  0
    7.1156   -7.5454   16.8218 C   0  0  0  0  0  0  0  0  0  0  0  0
   10.3885   -4.4388   19.2773 C   0  0  0  0  0  0  0  0  0  0  0  0
    4.5160   -9.3822   15.0841 C   0  0  0  0  0  0  0  0  0  0  0  0
  1  3  4  0
  1 24  4  0
  2  6  4  0
  2 15  4  0
  3  5  4  0
  3  6  4  0
  4 21  4  0
  4 29  4  0
  5 15  4  0
  5 28  1  0
  6 16  4  0
  7 18  4  0
  7 26  4  0
  8 18  1  0
  8 19  4  0
  8 22  4  0
  9 12  4  0
  9 19  4  0
 10 12  4  0
 10 22  4  0
 11 20  4  0
 11 21  4  0
 12 23  1  0
 13 20  4  0
 13 29  4  0
 14 17  4  0
 14 28  4  0
 15 25  2  0
 16 27  4  0
 17 18  4  0
 20 27  1  0
 24 27  4  0
 26 28  4  0
M  END
$$$$

 Created by Python create_sdf_string function

 29 33  0  0  0  0  0  0  0  0999 V2000
    8.8270   -7.0288   18.4251 C   0  0  0  0  0  0  0  0  0  0  0  0
    9.1576   -4.6236   15.8860 O   0  0  0  0  0  0  0  0  0  0  0  0
    9.1509   -5.9108   17.7177 C   0  0  0  0  0  0  0  0  0  0  0  0
    3.6373   -9.5349   16.0582 N   0  0  0  0  0  0  0  0  0  0  0  0
    9.9275   -4.8001   18.0438 N   0  0  0  0  0  0  0  0  0  0  0  0
    8.5908   -5.7425   16.4412 C   0  0  0  0  0  0  0  0  0  0  0  0
   10.5993   -4.8981   21.6068 C   0  0  0  0  0  0  0  0  0  0  0  0
   10.4258   -3.0106   23.0998 C   0  0  0  0  0  0  0  0  0  0  0  0
   10.2148   -3.4364   25.4200 C   0  0  0  0  0  0  0  0  0  0  0  0
    9.7853   -1.1840   24.4927 C   0  0  0  0  0  0  0  0  0  0  0  0
    5.0276   -8.5227   17.5352 C   0  0  0  0  0  0  0  0  0  0  0  0
    9.8187   -2.0895   25.5800 C   0  0  0  0  0  0  0  0  0  0  0  0
    5.6473   -8.7216   15.3158 C   0  0  0  0  0  0  0  0  0  0  0  0
   10.7581   -3.1233   19.4720 N   0  0  0  0  0  0  0  0  0  0  0  0
    9.9571   -4.0573   16.8866 C   0  0  0  0  0  0  0  0  0  0  0  0
    7.6213   -6.5618   16.0087 C   0  0  0  0  0  0  0  0  0  0  0  0
   10.8583   -2.6527   20.7222 C   0  0  0  0  0  0  0  0  0  0  0  0
   10.6412   -3.5089   21.7936 C   0  0  0  0  0  0  0  0  0  0  0  0
   10.4972   -3.8968   24.1589 C   0  0  0  0  0  0  0  0  0  0  0  0
    5.9260   -8.2736   16.5517 C   0  0  0  0  0  0  0  0  0  0  0  0
    3.8816   -9.1166   17.2493 C   0  0  0  0  0  0  0  0  0  0  0  0
   10.1297   -1.6575   23.2324 C   0  0  0  0  0  0  0  0  0  0  0  0
    9.4684   -1.6929   26.7263 F   0  0  0  0  0  0  0  0  0  0  0  0
    7.7963   -7.7906   17.9837 C   0  0  0  0  0  0  0  0  0  0  0  0
   10.5884   -3.0725   16.7902 O   0  0  0  0  0  0  0  0  0  0  0  0
   10.4323   -5.3494   20.3516 C   0  0  0  0  0  0  0  0  0  0  0  0
    7.1156   -7.5454   16.8218 C   0  0  0  0  0  0  0  0  0  0  0  0
   10.3885   -4.4388   19.2773 C   0  0  0  0  0  0  0  0  0  0  0  0
    4.5160   -9.3822   15.0841 C   0  0  0  0  0  0  0  0  0  0  0  0
  1  3  4  0
  1 24  4  0
  2  6  4  0
  2 15  4  0
  3  5  4  0
  3  6  4  0
  4 21  4  0
  4 29  4  0
  5 15  4  0
  5 28  1  0
  6 16  4  0
  7 18  4  0
  7 26  4  0
  8 18  1  0
  8 19  4  0
  8 22  4  0
  9 12  4  0
  9 19  4  0
 10 12  4  0
 10 22  4  0
 11 20  4  0
 11 21  4  0
 12 23  1  0
 13 20  4  0
 13 29  4  0
 14 17  4  0
 14 28  4  0
 15 25  2  0
 16 27  4  0
 17 18  4  0
 20 27  1  0
 24 27  4  0
 26 28  4  0
M  END
$$$$

 Created by Python create_sdf_string function

 29 33  0  0  0  0  0  0  0  0999 V2000
    8.8270   -7.0288   18.4251 C   0  0  0  0  0  0  0  0  0  0  0  0
    9.1576   -4.6236   15.8860 O   0  0  0  0  0  0  0  0  0  0  0  0
    9.1509   -5.9108   17.7177 C   0  0  0  0  0  0  0  0  0  0  0  0
    3.6373   -9.5349   16.0582 N   0  0  0  0  0  0  0  0  0  0  0  0
    9.9275   -4.8001   18.0438 N   0  0  0  0  0  0  0  0  0  0  0  0
    8.5908   -5.7425   16.4412 C   0  0  0  0  0  0  0  0  0  0  0  0
   10.5993   -4.8981   21.6068 C   0  0  0  0  0  0  0  0  0  0  0  0
   10.4258   -3.0106   23.0998 C   0  0  0  0  0  0  0  0  0  0  0  0
   10.2148   -3.4364   25.4200 C   0  0  0  0  0  0  0  0  0  0  0  0
    9.7853   -1.1840   24.4927 C   0  0  0  0  0  0  0  0  0  0  0  0
    5.0276   -8.5227   17.5352 C   0  0  0  0  0  0  0  0  0  0  0  0
    9.8187   -2.0895   25.5800 C   0  0  0  0  0  0  0  0  0  0  0  0
    5.6473   -8.7216   15.3158 C   0  0  0  0  0  0  0  0  0  0  0  0
   10.7581   -3.1233   19.4720 N   0  0  0  0  0  0  0  0  0  0  0  0
    9.9571   -4.0573   16.8866 C   0  0  0  0  0  0  0  0  0  0  0  0
    7.6213   -6.5618   16.0087 C   0  0  0  0  0  0  0  0  0  0  0  0
   10.8583   -2.6527   20.7222 C   0  0  0  0  0  0  0  0  0  0  0  0
   10.6412   -3.5089   21.7936 C   0  0  0  0  0  0  0  0  0  0  0  0
   10.4972   -3.8968   24.1589 C   0  0  0  0  0  0  0  0  0  0  0  0
    5.9260   -8.2736   16.5517 C   0  0  0  0  0  0  0  0  0  0  0  0
    3.8816   -9.1166   17.2493 C   0  0  0  0  0  0  0  0  0  0  0  0
   10.1297   -1.6575   23.2324 C   0  0  0  0  0  0  0  0  0  0  0  0
    9.4684   -1.6929   26.7263 F   0  0  0  0  0  0  0  0  0  0  0  0
    7.7963   -7.7906   17.9837 C   0  0  0  0  0  0  0  0  0  0  0  0
   10.5884   -3.0725   16.7902 O   0  0  0  0  0  0  0  0  0  0  0  0
   10.4323   -5.3494   20.3516 C   0  0  0  0  0  0  0  0  0  0  0  0
    7.1156   -7.5454   16.8218 C   0  0  0  0  0  0  0  0  0  0  0  0
   10.3885   -4.4388   19.2773 C   0  0  0  0  0  0  0  0  0  0  0  0
    4.5160   -9.3822   15.0841 C   0  0  0  0  0  0  0  0  0  0  0  0
  1  3  4  0
  1 24  4  0
  2  6  4  0
  2 15  4  0
  3  5  4  0
  3  6  4  0
  4 21  4  0
  4 29  4  0
  5 15  4  0
  5 28  1  0
  6 16  4  0
  7 18  4  0
  7 26  4  0
  8 18  1  0
  8 19  4  0
  8 22  4  0
  9 12  4  0
  9 19  4  0
 10 12  4  0
 10 22  4  0
 11 20  4  0
 11 21  4  0
 12 23  1  0
 13 20  4  0
 13 29  4  0
 14 17  4  0
 14 28  4  0
 15 25  2  0
 16 27  4  0
 17 18  4  0
 20 27  1  0
 24 27  4  0
 26 28  4  0
M  END
$$$$

 Created by Python create_sdf_string function

 29 33  0  0  0  0  0  0  0  0999 V2000
    8.8270   -7.0288   18.4251 C   0  0  0  0  0  0  0  0  0  0  0  0
    9.1576   -4.6236   15.8860 O   0  0  0  0  0  0  0  0  0  0  0  0
    9.1509   -5.9108   17.7177 C   0  0  0  0  0  0  0  0  0  0  0  0
    3.6373   -9.5349   16.0582 N   0  0  0  0  0  0  0  0  0  0  0  0
    9.9275   -4.8001   18.0438 N   0  0  0  0  0  0  0  0  0  0  0  0
    8.5908   -5.7425   16.4412 C   0  0  0  0  0  0  0  0  0  0  0  0
   10.5993   -4.8981   21.6068 C   0  0  0  0  0  0  0  0  0  0  0  0
   10.4258   -3.0106   23.0998 C   0  0  0  0  0  0  0  0  0  0  0  0
   10.2148   -3.4364   25.4200 C   0  0  0  0  0  0  0  0  0  0  0  0
    9.7853   -1.1840   24.4927 C   0  0  0  0  0  0  0  0  0  0  0  0
    5.0276   -8.5227   17.5352 C   0  0  0  0  0  0  0  0  0  0  0  0
    9.8187   -2.0895   25.5800 C   0  0  0  0  0  0  0  0  0  0  0  0
    5.6473   -8.7216   15.3158 C   0  0  0  0  0  0  0  0  0  0  0  0
   10.7581   -3.1233   19.4720 N   0  0  0  0  0  0  0  0  0  0  0  0
    9.9571   -4.0573   16.8866 C   0  0  0  0  0  0  0  0  0  0  0  0
    7.6213   -6.5618   16.0087 C   0  0  0  0  0  0  0  0  0  0  0  0
   10.8583   -2.6527   20.7222 C   0  0  0  0  0  0  0  0  0  0  0  0
   10.6412   -3.5089   21.7936 C   0  0  0  0  0  0  0  0  0  0  0  0
   10.4972   -3.8968   24.1589 C   0  0  0  0  0  0  0  0  0  0  0  0
    5.9260   -8.2736   16.5517 C   0  0  0  0  0  0  0  0  0  0  0  0
    3.8816   -9.1166   17.2493 C   0  0  0  0  0  0  0  0  0  0  0  0
   10.1297   -1.6575   23.2324 C   0  0  0  0  0  0  0  0  0  0  0  0
    9.4684   -1.6929   26.7263 F   0  0  0  0  0  0  0  0  0  0  0  0
    7.7963   -7.7906   17.9837 C   0  0  0  0  0  0  0  0  0  0  0  0
   10.5884   -3.0725   16.7902 O   0  0  0  0  0  0  0  0  0  0  0  0
   10.4323   -5.3494   20.3516 C   0  0  0  0  0  0  0  0  0  0  0  0
    7.1156   -7.5454   16.8218 C   0  0  0  0  0  0  0  0  0  0  0  0
   10.3885   -4.4388   19.2773 C   0  0  0  0  0  0  0  0  0  0  0  0
    4.5160   -9.3822   15.0841 C   0  0  0  0  0  0  0  0  0  0  0  0
  1  3  4  0
  1 24  4  0
  2  6  4  0
  2 15  4  0
  3  5  4  0
  3  6  4  0
  4 21  4  0
  4 29  4  0
  5 15  4  0
  5 28  1  0
  6 16  4  0
  7 18  4  0
  7 26  4  0
  8 18  1  0
  8 19  4  0
  8 22  4  0
  9 12  4  0
  9 19  4  0
 10 12  4  0
 10 22  4  0
 11 20  4  0
 11 21  4  0
 12 23  1  0
 13 20  4  0
 13 29  4  0
 14 17  4  0
 14 28  4  0
 15 25  2  0
 16 27  4  0
 17 18  4  0
 20 27  1  0
 24 27  4  0
 26 28  4  0
M  END
$$$$

 Created by Python create_sdf_string function

 29 33  0  0  0  0  0  0  0  0999 V2000
    8.8270   -7.0288   18.4251 C   0  0  0  0  0  0  0  0  0  0  0  0
    9.1576   -4.6236   15.8860 O   0  0  0  0  0  0  0  0  0  0  0  0
    9.1509   -5.9108   17.7177 C   0  0  0  0  0  0  0  0  0  0  0  0
    3.6373   -9.5349   16.0582 N   0  0  0  0  0  0  0  0  0  0  0  0
    9.9275   -4.8001   18.0438 N   0  0  0  0  0  0  0  0  0  0  0  0
    8.5908   -5.7425   16.4412 C   0  0  0  0  0  0  0  0  0  0  0  0
   10.5993   -4.8981   21.6068 C   0  0  0  0  0  0  0  0  0  0  0  0
   10.4258   -3.0106   23.0998 C   0  0  0  0  0  0  0  0  0  0  0  0
   10.2148   -3.4364   25.4200 C   0  0  0  0  0  0  0  0  0  0  0  0
    9.7853   -1.1840   24.4927 C   0  0  0  0  0  0  0  0  0  0  0  0
    5.0276   -8.5227   17.5352 C   0  0  0  0  0  0  0  0  0  0  0  0
    9.8187   -2.0895   25.5800 C   0  0  0  0  0  0  0  0  0  0  0  0
    5.6473   -8.7216   15.3158 C   0  0  0  0  0  0  0  0  0  0  0  0
   10.7581   -3.1233   19.4720 N   0  0  0  0  0  0  0  0  0  0  0  0
    9.9571   -4.0573   16.8866 C   0  0  0  0  0  0  0  0  0  0  0  0
    7.6213   -6.5618   16.0087 C   0  0  0  0  0  0  0  0  0  0  0  0
   10.8583   -2.6527   20.7222 C   0  0  0  0  0  0  0  0  0  0  0  0
   10.6412   -3.5089   21.7936 C   0  0  0  0  0  0  0  0  0  0  0  0
   10.4972   -3.8968   24.1589 C   0  0  0  0  0  0  0  0  0  0  0  0
    5.9260   -8.2736   16.5517 C   0  0  0  0  0  0  0  0  0  0  0  0
    3.8816   -9.1166   17.2493 C   0  0  0  0  0  0  0  0  0  0  0  0
   10.1297   -1.6575   23.2324 C   0  0  0  0  0  0  0  0  0  0  0  0
    9.4684   -1.6929   26.7263 F   0  0  0  0  0  0  0  0  0  0  0  0
    7.7963   -7.7906   17.9837 C   0  0  0  0  0  0  0  0  0  0  0  0
   10.5884   -3.0725   16.7902 O   0  0  0  0  0  0  0  0  0  0  0  0
   10.4323   -5.3494   20.3516 C   0  0  0  0  0  0  0  0  0  0  0  0
    7.1156   -7.5454   16.8218 C   0  0  0  0  0  0  0  0  0  0  0  0
   10.3885   -4.4388   19.2773 C   0  0  0  0  0  0  0  0  0  0  0  0
    4.5160   -9.3822   15.0841 C   0  0  0  0  0  0  0  0  0  0  0  0
  1  3  4  0
  1 24  4  0
  2  6  4  0
  2 15  4  0
  3  5  4  0
  3  6  4  0
  4 21  4  0
  4 29  4  0
  5 15  4  0
  5 28  1  0
  6 16  4  0
  7 18  4  0
  7 26  4  0
  8 18  1  0
  8 19  4  0
  8 22  4  0
  9 12  4  0
  9 19  4  0
 10 12  4  0
 10 22  4  0
 11 20  4  0
 11 21  4  0
 12 23  1  0
 13 20  4  0
 13 29  4  0
 14 17  4  0
 14 28  4  0
 15 25  2  0
 16 27  4  0
 17 18  4  0
 20 27  1  0
 24 27  4  0
 26 28  4  0
M  END
$$$$

 Created by Python create_sdf_string function

 29 33  0  0  0  0  0  0  0  0999 V2000
    8.8270   -7.0288   18.4251 C   0  0  0  0  0  0  0  0  0  0  0  0
    9.1576   -4.6236   15.8860 O   0  0  0  0  0  0  0  0  0  0  0  0
    9.1509   -5.9108   17.7177 C   0  0  0  0  0  0  0  0  0  0  0  0
    3.6373   -9.5349   16.0582 N   0  0  0  0  0  0  0  0  0  0  0  0
    9.9275   -4.8001   18.0438 N   0  0  0  0  0  0  0  0  0  0  0  0
    8.5908   -5.7425   16.4412 C   0  0  0  0  0  0  0  0  0  0  0  0
   10.5993   -4.8981   21.6068 C   0  0  0  0  0  0  0  0  0  0  0  0
   10.4258   -3.0106   23.0998 C   0  0  0  0  0  0  0  0  0  0  0  0
   10.2148   -3.4364   25.4200 C   0  0  0  0  0  0  0  0  0  0  0  0
    9.7853   -1.1840   24.4927 C   0  0  0  0  0  0  0  0  0  0  0  0
    5.0276   -8.5227   17.5352 C   0  0  0  0  0  0  0  0  0  0  0  0
    9.8187   -2.0895   25.5800 C   0  0  0  0  0  0  0  0  0  0  0  0
    5.6473   -8.7216   15.3158 C   0  0  0  0  0  0  0  0  0  0  0  0
   10.7581   -3.1233   19.4720 N   0  0  0  0  0  0  0  0  0  0  0  0
    9.9571   -4.0573   16.8866 C   0  0  0  0  0  0  0  0  0  0  0  0
    7.6213   -6.5618   16.0087 C   0  0  0  0  0  0  0  0  0  0  0  0
   10.8583   -2.6527   20.7222 C   0  0  0  0  0  0  0  0  0  0  0  0
   10.6412   -3.5089   21.7936 C   0  0  0  0  0  0  0  0  0  0  0  0
   10.4972   -3.8968   24.1589 C   0  0  0  0  0  0  0  0  0  0  0  0
    5.9260   -8.2736   16.5517 C   0  0  0  0  0  0  0  0  0  0  0  0
    3.8816   -9.1166   17.2493 C   0  0  0  0  0  0  0  0  0  0  0  0
   10.1297   -1.6575   23.2324 C   0  0  0  0  0  0  0  0  0  0  0  0
    9.4684   -1.6929   26.7263 F   0  0  0  0  0  0  0  0  0  0  0  0
    7.7963   -7.7906   17.9837 C   0  0  0  0  0  0  0  0  0  0  0  0
   10.5884   -3.0725   16.7902 O   0  0  0  0  0  0  0  0  0  0  0  0
   10.4323   -5.3494   20.3516 C   0  0  0  0  0  0  0  0  0  0  0  0
    7.1156   -7.5454   16.8218 C   0  0  0  0  0  0  0  0  0  0  0  0
   10.3885   -4.4388   19.2773 C   0  0  0  0  0  0  0  0  0  0  0  0
    4.5160   -9.3822   15.0841 C   0  0  0  0  0  0  0  0  0  0  0  0
  1  3  4  0
  1 24  4  0
  2  6  4  0
  2 15  4  0
  3  5  4  0
  3  6  4  0
  4 21  4  0
  4 29  4  0
  5 15  4  0
  5 28  1  0
  6 16  4  0
  7 18  4  0
  7 26  4  0
  8 18  1  0
  8 19  4  0
  8 22  4  0
  9 12  4  0
  9 19  4  0
 10 12  4  0
 10 22  4  0
 11 20  4  0
 11 21  4  0
 12 23  1  0
 13 20  4  0
 13 29  4  0
 14 17  4  0
 14 28  4  0
 15 25  2  0
 16 27  4  0
 17 18  4  0
 20 27  1  0
 24 27  4  0
 26 28  4  0
M  END
$$$$

 Created by Python create_sdf_string function

 29 33  0  0  0  0  0  0  0  0999 V2000
    8.8270   -7.0288   18.4251 C   0  0  0  0  0  0  0  0  0  0  0  0
    9.1576   -4.6236   15.8860 O   0  0  0  0  0  0  0  0  0  0  0  0
    9.1509   -5.9108   17.7177 C   0  0  0  0  0  0  0  0  0  0  0  0
    3.6373   -9.5349   16.0582 N   0  0  0  0  0  0  0  0  0  0  0  0
    9.9275   -4.8001   18.0438 N   0  0  0  0  0  0  0  0  0  0  0  0
    8.5908   -5.7425   16.4412 C   0  0  0  0  0  0  0  0  0  0  0  0
   10.5993   -4.8981   21.6068 C   0  0  0  0  0  0  0  0  0  0  0  0
   10.4258   -3.0106   23.0998 C   0  0  0  0  0  0  0  0  0  0  0  0
   10.2148   -3.4364   25.4200 C   0  0  0  0  0  0  0  0  0  0  0  0
    9.7853   -1.1840   24.4927 C   0  0  0  0  0  0  0  0  0  0  0  0
    5.0276   -8.5227   17.5352 C   0  0  0  0  0  0  0  0  0  0  0  0
    9.8187   -2.0895   25.5800 C   0  0  0  0  0  0  0  0  0  0  0  0
    5.6473   -8.7216   15.3158 C   0  0  0  0  0  0  0  0  0  0  0  0
   10.7581   -3.1233   19.4720 N   0  0  0  0  0  0  0  0  0  0  0  0
    9.9571   -4.0573   16.8866 C   0  0  0  0  0  0  0  0  0  0  0  0
    7.6213   -6.5618   16.0087 C   0  0  0  0  0  0  0  0  0  0  0  0
   10.8583   -2.6527   20.7222 C   0  0  0  0  0  0  0  0  0  0  0  0
   10.6412   -3.5089   21.7936 C   0  0  0  0  0  0  0  0  0  0  0  0
   10.4972   -3.8968   24.1589 C   0  0  0  0  0  0  0  0  0  0  0  0
    5.9260   -8.2736   16.5517 C   0  0  0  0  0  0  0  0  0  0  0  0
    3.8816   -9.1166   17.2493 C   0  0  0  0  0  0  0  0  0  0  0  0
   10.1297   -1.6575   23.2324 C   0  0  0  0  0  0  0  0  0  0  0  0
    9.4684   -1.6929   26.7263 F   0  0  0  0  0  0  0  0  0  0  0  0
    7.7963   -7.7906   17.9837 C   0  0  0  0  0  0  0  0  0  0  0  0
   10.5884   -3.0725   16.7902 O   0  0  0  0  0  0  0  0  0  0  0  0
   10.4323   -5.3494   20.3516 C   0  0  0  0  0  0  0  0  0  0  0  0
    7.1156   -7.5454   16.8218 C   0  0  0  0  0  0  0  0  0  0  0  0
   10.3885   -4.4388   19.2773 C   0  0  0  0  0  0  0  0  0  0  0  0
    4.5160   -9.3822   15.0841 C   0  0  0  0  0  0  0  0  0  0  0  0
  1  3  4  0
  1 24  4  0
  2  6  4  0
  2 15  4  0
  3  5  4  0
  3  6  4  0
  4 21  4  0
  4 29  4  0
  5 15  4  0
  5 28  1  0
  6 16  4  0
  7 18  4  0
  7 26  4  0
  8 18  1  0
  8 19  4  0
  8 22  4  0
  9 12  4  0
  9 19  4  0
 10 12  4  0
 10 22  4  0
 11 20  4  0
 11 21  4  0
 12 23  1  0
 13 20  4  0
 13 29  4  0
 14 17  4  0
 14 28  4  0
 15 25  2  0
 16 27  4  0
 17 18  4  0
 20 27  1  0
 24 27  4  0
 26 28  4  0
M  END
$$$$

 Created by Python create_sdf_string function

 29 33  0  0  0  0  0  0  0  0999 V2000
    8.8270   -7.0288   18.4251 C   0  0  0  0  0  0  0  0  0  0  0  0
    9.1576   -4.6236   15.8860 O   0  0  0  0  0  0  0  0  0  0  0  0
    9.1509   -5.9108   17.7177 C   0  0  0  0  0  0  0  0  0  0  0  0
    3.6373   -9.5349   16.0582 N   0  0  0  0  0  0  0  0  0  0  0  0
    9.9275   -4.8001   18.0438 N   0  0  0  0  0  0  0  0  0  0  0  0
    8.5908   -5.7425   16.4412 C   0  0  0  0  0  0  0  0  0  0  0  0
   10.5993   -4.8981   21.6068 C   0  0  0  0  0  0  0  0  0  0  0  0
   10.4258   -3.0106   23.0998 C   0  0  0  0  0  0  0  0  0  0  0  0
   10.2148   -3.4364   25.4200 C   0  0  0  0  0  0  0  0  0  0  0  0
    9.7853   -1.1840   24.4927 C   0  0  0  0  0  0  0  0  0  0  0  0
    5.0276   -8.5227   17.5352 C   0  0  0  0  0  0  0  0  0  0  0  0
    9.8187   -2.0895   25.5800 C   0  0  0  0  0  0  0  0  0  0  0  0
    5.6473   -8.7216   15.3158 C   0  0  0  0  0  0  0  0  0  0  0  0
   10.7581   -3.1233   19.4720 N   0  0  0  0  0  0  0  0  0  0  0  0
    9.9571   -4.0573   16.8866 C   0  0  0  0  0  0  0  0  0  0  0  0
    7.6213   -6.5618   16.0087 C   0  0  0  0  0  0  0  0  0  0  0  0
   10.8583   -2.6527   20.7222 C   0  0  0  0  0  0  0  0  0  0  0  0
   10.6412   -3.5089   21.7936 C   0  0  0  0  0  0  0  0  0  0  0  0
   10.4972   -3.8968   24.1589 C   0  0  0  0  0  0  0  0  0  0  0  0
    5.9260   -8.2736   16.5517 C   0  0  0  0  0  0  0  0  0  0  0  0
    3.8816   -9.1166   17.2493 C   0  0  0  0  0  0  0  0  0  0  0  0
   10.1297   -1.6575   23.2324 C   0  0  0  0  0  0  0  0  0  0  0  0
    9.4684   -1.6929   26.7263 F   0  0  0  0  0  0  0  0  0  0  0  0
    7.7963   -7.7906   17.9837 C   0  0  0  0  0  0  0  0  0  0  0  0
   10.5884   -3.0725   16.7902 O   0  0  0  0  0  0  0  0  0  0  0  0
   10.4323   -5.3494   20.3516 C   0  0  0  0  0  0  0  0  0  0  0  0
    7.1156   -7.5454   16.8218 C   0  0  0  0  0  0  0  0  0  0  0  0
   10.3885   -4.4388   19.2773 C   0  0  0  0  0  0  0  0  0  0  0  0
    4.5160   -9.3822   15.0841 C   0  0  0  0  0  0  0  0  0  0  0  0
  1  3  4  0
  1 24  4  0
  2  6  4  0
  2 15  4  0
  3  5  4  0
  3  6  4  0
  4 21  4  0
  4 29  4  0
  5 15  4  0
  5 28  1  0
  6 16  4  0
  7 18  4  0
  7 26  4  0
  8 18  1  0
  8 19  4  0
  8 22  4  0
  9 12  4  0
  9 19  4  0
 10 12  4  0
 10 22  4  0
 11 20  4  0
 11 21  4  0
 12 23  1  0
 13 20  4  0
 13 29  4  0
 14 17  4  0
 14 28  4  0
 15 25  2  0
 16 27  4  0
 17 18  4  0
 20 27  1  0
 24 27  4  0
 26 28  4  0
M  END
$$$$

 Created by Python create_sdf_string function

 29 33  0  0  0  0  0  0  0  0999 V2000
    8.8270   -7.0288   18.4251 C   0  0  0  0  0  0  0  0  0  0  0  0
    9.1576   -4.6236   15.8860 O   0  0  0  0  0  0  0  0  0  0  0  0
    9.1509   -5.9108   17.7177 C   0  0  0  0  0  0  0  0  0  0  0  0
    3.6373   -9.5349   16.0582 N   0  0  0  0  0  0  0  0  0  0  0  0
    9.9275   -4.8001   18.0438 N   0  0  0  0  0  0  0  0  0  0  0  0
    8.5908   -5.7425   16.4412 C   0  0  0  0  0  0  0  0  0  0  0  0
   10.5993   -4.8981   21.6068 C   0  0  0  0  0  0  0  0  0  0  0  0
   10.4258   -3.0106   23.0998 C   0  0  0  0  0  0  0  0  0  0  0  0
   10.2148   -3.4364   25.4200 C   0  0  0  0  0  0  0  0  0  0  0  0
    9.7853   -1.1840   24.4927 C   0  0  0  0  0  0  0  0  0  0  0  0
    5.0276   -8.5227   17.5352 C   0  0  0  0  0  0  0  0  0  0  0  0
    9.8187   -2.0895   25.5800 C   0  0  0  0  0  0  0  0  0  0  0  0
    5.6473   -8.7216   15.3158 C   0  0  0  0  0  0  0  0  0  0  0  0
   10.7581   -3.1233   19.4720 N   0  0  0  0  0  0  0  0  0  0  0  0
    9.9571   -4.0573   16.8866 C   0  0  0  0  0  0  0  0  0  0  0  0
    7.6213   -6.5618   16.0087 C   0  0  0  0  0  0  0  0  0  0  0  0
   10.8583   -2.6527   20.7222 C   0  0  0  0  0  0  0  0  0  0  0  0
   10.6412   -3.5089   21.7936 C   0  0  0  0  0  0  0  0  0  0  0  0
   10.4972   -3.8968   24.1589 C   0  0  0  0  0  0  0  0  0  0  0  0
    5.9260   -8.2736   16.5517 C   0  0  0  0  0  0  0  0  0  0  0  0
    3.8816   -9.1166   17.2493 C   0  0  0  0  0  0  0  0  0  0  0  0
   10.1297   -1.6575   23.2324 C   0  0  0  0  0  0  0  0  0  0  0  0
    9.4684   -1.6929   26.7263 F   0  0  0  0  0  0  0  0  0  0  0  0
    7.7963   -7.7906   17.9837 C   0  0  0  0  0  0  0  0  0  0  0  0
   10.5884   -3.0725   16.7902 O   0  0  0  0  0  0  0  0  0  0  0  0
   10.4323   -5.3494   20.3516 C   0  0  0  0  0  0  0  0  0  0  0  0
    7.1156   -7.5454   16.8218 C   0  0  0  0  0  0  0  0  0  0  0  0
   10.3885   -4.4388   19.2773 C   0  0  0  0  0  0  0  0  0  0  0  0
    4.5160   -9.3822   15.0841 C   0  0  0  0  0  0  0  0  0  0  0  0
  1  3  4  0
  1 24  4  0
  2  6  4  0
  2 15  4  0
  3  5  4  0
  3  6  4  0
  4 21  4  0
  4 29  4  0
  5 15  4  0
  5 28  1  0
  6 16  4  0
  7 18  4  0
  7 26  4  0
  8 18  1  0
  8 19  4  0
  8 22  4  0
  9 12  4  0
  9 19  4  0
 10 12  4  0
 10 22  4  0
 11 20  4  0
 11 21  4  0
 12 23  1  0
 13 20  4  0
 13 29  4  0
 14 17  4  0
 14 28  4  0
 15 25  2  0
 16 27  4  0
 17 18  4  0
 20 27  1  0
 24 27  4  0
 26 28  4  0
M  END
$$$$

 Created by Python create_sdf_string function

 29 33  0  0  0  0  0  0  0  0999 V2000
    8.8270   -7.0288   18.4251 C   0  0  0  0  0  0  0  0  0  0  0  0
    9.1576   -4.6236   15.8860 O   0  0  0  0  0  0  0  0  0  0  0  0
    9.1509   -5.9108   17.7177 C   0  0  0  0  0  0  0  0  0  0  0  0
    3.6373   -9.5349   16.0582 N   0  0  0  0  0  0  0  0  0  0  0  0
    9.9275   -4.8001   18.0438 N   0  0  0  0  0  0  0  0  0  0  0  0
    8.5908   -5.7425   16.4412 C   0  0  0  0  0  0  0  0  0  0  0  0
   10.5993   -4.8981   21.6068 C   0  0  0  0  0  0  0  0  0  0  0  0
   10.4258   -3.0106   23.0998 C   0  0  0  0  0  0  0  0  0  0  0  0
   10.2148   -3.4364   25.4200 C   0  0  0  0  0  0  0  0  0  0  0  0
    9.7853   -1.1840   24.4927 C   0  0  0  0  0  0  0  0  0  0  0  0
    5.0276   -8.5227   17.5352 C   0  0  0  0  0  0  0  0  0  0  0  0
    9.8187   -2.0895   25.5800 C   0  0  0  0  0  0  0  0  0  0  0  0
    5.6473   -8.7216   15.3158 C   0  0  0  0  0  0  0  0  0  0  0  0
   10.7581   -3.1233   19.4720 N   0  0  0  0  0  0  0  0  0  0  0  0
    9.9571   -4.0573   16.8866 C   0  0  0  0  0  0  0  0  0  0  0  0
    7.6213   -6.5618   16.0087 C   0  0  0  0  0  0  0  0  0  0  0  0
   10.8583   -2.6527   20.7222 C   0  0  0  0  0  0  0  0  0  0  0  0
   10.6412   -3.5089   21.7936 C   0  0  0  0  0  0  0  0  0  0  0  0
   10.4972   -3.8968   24.1589 C   0  0  0  0  0  0  0  0  0  0  0  0
    5.9260   -8.2736   16.5517 C   0  0  0  0  0  0  0  0  0  0  0  0
    3.8816   -9.1166   17.2493 C   0  0  0  0  0  0  0  0  0  0  0  0
   10.1297   -1.6575   23.2324 C   0  0  0  0  0  0  0  0  0  0  0  0
    9.4684   -1.6929   26.7263 F   0  0  0  0  0  0  0  0  0  0  0  0
    7.7963   -7.7906   17.9837 C   0  0  0  0  0  0  0  0  0  0  0  0
   10.5884   -3.0725   16.7902 O   0  0  0  0  0  0  0  0  0  0  0  0
   10.4323   -5.3494   20.3516 C   0  0  0  0  0  0  0  0  0  0  0  0
    7.1156   -7.5454   16.8218 C   0  0  0  0  0  0  0  0  0  0  0  0
   10.3885   -4.4388   19.2773 C   0  0  0  0  0  0  0  0  0  0  0  0
    4.5160   -9.3822   15.0841 C   0  0  0  0  0  0  0  0  0  0  0  0
  1  3  4  0
  1 24  4  0
  2  6  4  0
  2 15  4  0
  3  5  4  0
  3  6  4  0
  4 21  4  0
  4 29  4  0
  5 15  4  0
  5 28  1  0
  6 16  4  0
  7 18  4  0
  7 26  4  0
  8 18  1  0
  8 19  4  0
  8 22  4  0
  9 12  4  0
  9 19  4  0
 10 12  4  0
 10 22  4  0
 11 20  4  0
 11 21  4  0
 12 23  1  0
 13 20  4  0
 13 29  4  0
 14 17  4  0
 14 28  4  0
 15 25  2  0
 16 27  4  0
 17 18  4  0
 20 27  1  0
 24 27  4  0
 26 28  4  0
M  END
$$$$

 Created by Python create_sdf_string function

 29 33  0  0  0  0  0  0  0  0999 V2000
    8.8270   -7.0288   18.4251 C   0  0  0  0  0  0  0  0  0  0  0  0
    9.1576   -4.6236   15.8860 O   0  0  0  0  0  0  0  0  0  0  0  0
    9.1509   -5.9108   17.7177 C   0  0  0  0  0  0  0  0  0  0  0  0
    3.6373   -9.5349   16.0582 N   0  0  0  0  0  0  0  0  0  0  0  0
    9.9275   -4.8001   18.0438 N   0  0  0  0  0  0  0  0  0  0  0  0
    8.5908   -5.7425   16.4412 C   0  0  0  0  0  0  0  0  0  0  0  0
   10.5993   -4.8981   21.6068 C   0  0  0  0  0  0  0  0  0  0  0  0
   10.4258   -3.0106   23.0998 C   0  0  0  0  0  0  0  0  0  0  0  0
   10.2148   -3.4364   25.4200 C   0  0  0  0  0  0  0  0  0  0  0  0
    9.7853   -1.1840   24.4927 C   0  0  0  0  0  0  0  0  0  0  0  0
    5.0276   -8.5227   17.5352 C   0  0  0  0  0  0  0  0  0  0  0  0
    9.8187   -2.0895   25.5800 C   0  0  0  0  0  0  0  0  0  0  0  0
    5.6473   -8.7216   15.3158 C   0  0  0  0  0  0  0  0  0  0  0  0
   10.7581   -3.1233   19.4720 N   0  0  0  0  0  0  0  0  0  0  0  0
    9.9571   -4.0573   16.8866 C   0  0  0  0  0  0  0  0  0  0  0  0
    7.6213   -6.5618   16.0087 C   0  0  0  0  0  0  0  0  0  0  0  0
   10.8583   -2.6527   20.7222 C   0  0  0  0  0  0  0  0  0  0  0  0
   10.6412   -3.5089   21.7936 C   0  0  0  0  0  0  0  0  0  0  0  0
   10.4972   -3.8968   24.1589 C   0  0  0  0  0  0  0  0  0  0  0  0
    5.9260   -8.2736   16.5517 C   0  0  0  0  0  0  0  0  0  0  0  0
    3.8816   -9.1166   17.2493 C   0  0  0  0  0  0  0  0  0  0  0  0
   10.1297   -1.6575   23.2324 C   0  0  0  0  0  0  0  0  0  0  0  0
    9.4684   -1.6929   26.7263 F   0  0  0  0  0  0  0  0  0  0  0  0
    7.7963   -7.7906   17.9837 C   0  0  0  0  0  0  0  0  0  0  0  0
   10.5884   -3.0725   16.7902 O   0  0  0  0  0  0  0  0  0  0  0  0
   10.4323   -5.3494   20.3516 C   0  0  0  0  0  0  0  0  0  0  0  0
    7.1156   -7.5454   16.8218 C   0  0  0  0  0  0  0  0  0  0  0  0
   10.3885   -4.4388   19.2773 C   0  0  0  0  0  0  0  0  0  0  0  0
    4.5160   -9.3822   15.0841 C   0  0  0  0  0  0  0  0  0  0  0  0
  1  3  4  0
  1 24  4  0
  2  6  4  0
  2 15  4  0
  3  5  4  0
  3  6  4  0
  4 21  4  0
  4 29  4  0
  5 15  4  0
  5 28  1  0
  6 16  4  0
  7 18  4  0
  7 26  4  0
  8 18  1  0
  8 19  4  0
  8 22  4  0
  9 12  4  0
  9 19  4  0
 10 12  4  0
 10 22  4  0
 11 20  4  0
 11 21  4  0
 12 23  1  0
 13 20  4  0
 13 29  4  0
 14 17  4  0
 14 28  4  0
 15 25  2  0
 16 27  4  0
 17 18  4  0
 20 27  1  0
 24 27  4  0
 26 28  4  0
M  END
$$$$

 Created by Python create_sdf_string function

 29 33  0  0  0  0  0  0  0  0999 V2000
    8.8270   -7.0288   18.4251 C   0  0  0  0  0  0  0  0  0  0  0  0
    9.1576   -4.6236   15.8860 O   0  0  0  0  0  0  0  0  0  0  0  0
    9.1509   -5.9108   17.7177 C   0  0  0  0  0  0  0  0  0  0  0  0
    3.6373   -9.5349   16.0582 N   0  0  0  0  0  0  0  0  0  0  0  0
    9.9275   -4.8001   18.0438 N   0  0  0  0  0  0  0  0  0  0  0  0
    8.5908   -5.7425   16.4412 C   0  0  0  0  0  0  0  0  0  0  0  0
   10.5993   -4.8981   21.6068 C   0  0  0  0  0  0  0  0  0  0  0  0
   10.4258   -3.0106   23.0998 C   0  0  0  0  0  0  0  0  0  0  0  0
   10.2148   -3.4364   25.4200 C   0  0  0  0  0  0  0  0  0  0  0  0
    9.7853   -1.1840   24.4927 C   0  0  0  0  0  0  0  0  0  0  0  0
    5.0276   -8.5227   17.5352 C   0  0  0  0  0  0  0  0  0  0  0  0
    9.8187   -2.0895   25.5800 C   0  0  0  0  0  0  0  0  0  0  0  0
    5.6473   -8.7216   15.3158 C   0  0  0  0  0  0  0  0  0  0  0  0
   10.7581   -3.1233   19.4720 N   0  0  0  0  0  0  0  0  0  0  0  0
    9.9571   -4.0573   16.8866 C   0  0  0  0  0  0  0  0  0  0  0  0
    7.6213   -6.5618   16.0087 C   0  0  0  0  0  0  0  0  0  0  0  0
   10.8583   -2.6527   20.7222 C   0  0  0  0  0  0  0  0  0  0  0  0
   10.6412   -3.5089   21.7936 C   0  0  0  0  0  0  0  0  0  0  0  0
   10.4972   -3.8968   24.1589 C   0  0  0  0  0  0  0  0  0  0  0  0
    5.9260   -8.2736   16.5517 C   0  0  0  0  0  0  0  0  0  0  0  0
    3.8816   -9.1166   17.2493 C   0  0  0  0  0  0  0  0  0  0  0  0
   10.1297   -1.6575   23.2324 C   0  0  0  0  0  0  0  0  0  0  0  0
    9.4684   -1.6929   26.7263 F   0  0  0  0  0  0  0  0  0  0  0  0
    7.7963   -7.7906   17.9837 C   0  0  0  0  0  0  0  0  0  0  0  0
   10.5884   -3.0725   16.7902 O   0  0  0  0  0  0  0  0  0  0  0  0
   10.4323   -5.3494   20.3516 C   0  0  0  0  0  0  0  0  0  0  0  0
    7.1156   -7.5454   16.8218 C   0  0  0  0  0  0  0  0  0  0  0  0
   10.3885   -4.4388   19.2773 C   0  0  0  0  0  0  0  0  0  0  0  0
    4.5160   -9.3822   15.0841 C   0  0  0  0  0  0  0  0  0  0  0  0
  1  3  4  0
  1 24  4  0
  2  6  4  0
  2 15  4  0
  3  5  4  0
  3  6  4  0
  4 21  4  0
  4 29  4  0
  5 15  4  0
  5 28  1  0
  6 16  4  0
  7 18  4  0
  7 26  4  0
  8 18  1  0
  8 19  4  0
  8 22  4  0
  9 12  4  0
  9 19  4  0
 10 12  4  0
 10 22  4  0
 11 20  4  0
 11 21  4  0
 12 23  1  0
 13 20  4  0
 13 29  4  0
 14 17  4  0
 14 28  4  0
 15 25  2  0
 16 27  4  0
 17 18  4  0
 20 27  1  0
 24 27  4  0
 26 28  4  0
M  END
$$$$

 Created by Python create_sdf_string function

 29 33  0  0  0  0  0  0  0  0999 V2000
    8.8270   -7.0288   18.4251 C   0  0  0  0  0  0  0  0  0  0  0  0
    9.1576   -4.6236   15.8860 O   0  0  0  0  0  0  0  0  0  0  0  0
    9.1509   -5.9108   17.7177 C   0  0  0  0  0  0  0  0  0  0  0  0
    3.6373   -9.5349   16.0582 N   0  0  0  0  0  0  0  0  0  0  0  0
    9.9275   -4.8001   18.0438 N   0  0  0  0  0  0  0  0  0  0  0  0
    8.5908   -5.7425   16.4412 C   0  0  0  0  0  0  0  0  0  0  0  0
   10.5993   -4.8981   21.6068 C   0  0  0  0  0  0  0  0  0  0  0  0
   10.4258   -3.0106   23.0998 C   0  0  0  0  0  0  0  0  0  0  0  0
   10.2148   -3.4364   25.4200 C   0  0  0  0  0  0  0  0  0  0  0  0
    9.7853   -1.1840   24.4927 C   0  0  0  0  0  0  0  0  0  0  0  0
    5.0276   -8.5227   17.5352 C   0  0  0  0  0  0  0  0  0  0  0  0
    9.8187   -2.0895   25.5800 C   0  0  0  0  0  0  0  0  0  0  0  0
    5.6473   -8.7216   15.3158 C   0  0  0  0  0  0  0  0  0  0  0  0
   10.7581   -3.1233   19.4720 N   0  0  0  0  0  0  0  0  0  0  0  0
    9.9571   -4.0573   16.8866 C   0  0  0  0  0  0  0  0  0  0  0  0
    7.6213   -6.5618   16.0087 C   0  0  0  0  0  0  0  0  0  0  0  0
   10.8583   -2.6527   20.7222 C   0  0  0  0  0  0  0  0  0  0  0  0
   10.6412   -3.5089   21.7936 C   0  0  0  0  0  0  0  0  0  0  0  0
   10.4972   -3.8968   24.1589 C   0  0  0  0  0  0  0  0  0  0  0  0
    5.9260   -8.2736   16.5517 C   0  0  0  0  0  0  0  0  0  0  0  0
    3.8816   -9.1166   17.2493 C   0  0  0  0  0  0  0  0  0  0  0  0
   10.1297   -1.6575   23.2324 C   0  0  0  0  0  0  0  0  0  0  0  0
    9.4684   -1.6929   26.7263 F   0  0  0  0  0  0  0  0  0  0  0  0
    7.7963   -7.7906   17.9837 C   0  0  0  0  0  0  0  0  0  0  0  0
   10.5884   -3.0725   16.7902 O   0  0  0  0  0  0  0  0  0  0  0  0
   10.4323   -5.3494   20.3516 C   0  0  0  0  0  0  0  0  0  0  0  0
    7.1156   -7.5454   16.8218 C   0  0  0  0  0  0  0  0  0  0  0  0
   10.3885   -4.4388   19.2773 C   0  0  0  0  0  0  0  0  0  0  0  0
    4.5160   -9.3822   15.0841 C   0  0  0  0  0  0  0  0  0  0  0  0
  1  3  4  0
  1 24  4  0
  2  6  4  0
  2 15  4  0
  3  5  4  0
  3  6  4  0
  4 21  4  0
  4 29  4  0
  5 15  4  0
  5 28  1  0
  6 16  4  0
  7 18  4  0
  7 26  4  0
  8 18  1  0
  8 19  4  0
  8 22  4  0
  9 12  4  0
  9 19  4  0
 10 12  4  0
 10 22  4  0
 11 20  4  0
 11 21  4  0
 12 23  1  0
 13 20  4  0
 13 29  4  0
 14 17  4  0
 14 28  4  0
 15 25  2  0
 16 27  4  0
 17 18  4  0
 20 27  1  0
 24 27  4  0
 26 28  4  0
M  END
$$$$

 Created by Python create_sdf_string function

 29 33  0  0  0  0  0  0  0  0999 V2000
    8.8270   -7.0288   18.4251 C   0  0  0  0  0  0  0  0  0  0  0  0
    9.1576   -4.6236   15.8860 O   0  0  0  0  0  0  0  0  0  0  0  0
    9.1509   -5.9108   17.7177 C   0  0  0  0  0  0  0  0  0  0  0  0
    3.6373   -9.5349   16.0582 N   0  0  0  0  0  0  0  0  0  0  0  0
    9.9275   -4.8001   18.0438 N   0  0  0  0  0  0  0  0  0  0  0  0
    8.5908   -5.7425   16.4412 C   0  0  0  0  0  0  0  0  0  0  0  0
   10.5993   -4.8981   21.6068 C   0  0  0  0  0  0  0  0  0  0  0  0
   10.4258   -3.0106   23.0998 C   0  0  0  0  0  0  0  0  0  0  0  0
   10.2148   -3.4364   25.4200 C   0  0  0  0  0  0  0  0  0  0  0  0
    9.7853   -1.1840   24.4927 C   0  0  0  0  0  0  0  0  0  0  0  0
    5.0276   -8.5227   17.5352 C   0  0  0  0  0  0  0  0  0  0  0  0
    9.8187   -2.0895   25.5800 C   0  0  0  0  0  0  0  0  0  0  0  0
    5.6473   -8.7216   15.3158 C   0  0  0  0  0  0  0  0  0  0  0  0
   10.7581   -3.1233   19.4720 N   0  0  0  0  0  0  0  0  0  0  0  0
    9.9571   -4.0573   16.8866 C   0  0  0  0  0  0  0  0  0  0  0  0
    7.6213   -6.5618   16.0087 C   0  0  0  0  0  0  0  0  0  0  0  0
   10.8583   -2.6527   20.7222 C   0  0  0  0  0  0  0  0  0  0  0  0
   10.6412   -3.5089   21.7936 C   0  0  0  0  0  0  0  0  0  0  0  0
   10.4972   -3.8968   24.1589 C   0  0  0  0  0  0  0  0  0  0  0  0
    5.9260   -8.2736   16.5517 C   0  0  0  0  0  0  0  0  0  0  0  0
    3.8816   -9.1166   17.2493 C   0  0  0  0  0  0  0  0  0  0  0  0
   10.1297   -1.6575   23.2324 C   0  0  0  0  0  0  0  0  0  0  0  0
    9.4684   -1.6929   26.7263 F   0  0  0  0  0  0  0  0  0  0  0  0
    7.7963   -7.7906   17.9837 C   0  0  0  0  0  0  0  0  0  0  0  0
   10.5884   -3.0725   16.7902 O   0  0  0  0  0  0  0  0  0  0  0  0
   10.4323   -5.3494   20.3516 C   0  0  0  0  0  0  0  0  0  0  0  0
    7.1156   -7.5454   16.8218 C   0  0  0  0  0  0  0  0  0  0  0  0
   10.3885   -4.4388   19.2773 C   0  0  0  0  0  0  0  0  0  0  0  0
    4.5160   -9.3822   15.0841 C   0  0  0  0  0  0  0  0  0  0  0  0
  1  3  4  0
  1 24  4  0
  2  6  4  0
  2 15  4  0
  3  5  4  0
  3  6  4  0
  4 21  4  0
  4 29  4  0
  5 15  4  0
  5 28  1  0
  6 16  4  0
  7 18  4  0
  7 26  4  0
  8 18  1  0
  8 19  4  0
  8 22  4  0
  9 12  4  0
  9 19  4  0
 10 12  4  0
 10 22  4  0
 11 20  4  0
 11 21  4  0
 12 23  1  0
 13 20  4  0
 13 29  4  0
 14 17  4  0
 14 28  4  0
 15 25  2  0
 16 27  4  0
 17 18  4  0
 20 27  1  0
 24 27  4  0
 26 28  4  0
M  END
$$$$

 Created by Python create_sdf_string function

 29 33  0  0  0  0  0  0  0  0999 V2000
    8.8270   -7.0288   18.4251 C   0  0  0  0  0  0  0  0  0  0  0  0
    9.1576   -4.6236   15.8860 O   0  0  0  0  0  0  0  0  0  0  0  0
    9.1509   -5.9108   17.7177 C   0  0  0  0  0  0  0  0  0  0  0  0
    3.6373   -9.5349   16.0582 N   0  0  0  0  0  0  0  0  0  0  0  0
    9.9275   -4.8001   18.0438 N   0  0  0  0  0  0  0  0  0  0  0  0
    8.5908   -5.7425   16.4412 C   0  0  0  0  0  0  0  0  0  0  0  0
   10.5993   -4.8981   21.6068 C   0  0  0  0  0  0  0  0  0  0  0  0
   10.4258   -3.0106   23.0998 C   0  0  0  0  0  0  0  0  0  0  0  0
   10.2148   -3.4364   25.4200 C   0  0  0  0  0  0  0  0  0  0  0  0
    9.7853   -1.1840   24.4927 C   0  0  0  0  0  0  0  0  0  0  0  0
    5.0276   -8.5227   17.5352 C   0  0  0  0  0  0  0  0  0  0  0  0
    9.8187   -2.0895   25.5800 C   0  0  0  0  0  0  0  0  0  0  0  0
    5.6473   -8.7216   15.3158 C   0  0  0  0  0  0  0  0  0  0  0  0
   10.7581   -3.1233   19.4720 N   0  0  0  0  0  0  0  0  0  0  0  0
    9.9571   -4.0573   16.8866 C   0  0  0  0  0  0  0  0  0  0  0  0
    7.6213   -6.5618   16.0087 C   0  0  0  0  0  0  0  0  0  0  0  0
   10.8583   -2.6527   20.7222 C   0  0  0  0  0  0  0  0  0  0  0  0
   10.6412   -3.5089   21.7936 C   0  0  0  0  0  0  0  0  0  0  0  0
   10.4972   -3.8968   24.1589 C   0  0  0  0  0  0  0  0  0  0  0  0
    5.9260   -8.2736   16.5517 C   0  0  0  0  0  0  0  0  0  0  0  0
    3.8816   -9.1166   17.2493 C   0  0  0  0  0  0  0  0  0  0  0  0
   10.1297   -1.6575   23.2324 C   0  0  0  0  0  0  0  0  0  0  0  0
    9.4684   -1.6929   26.7263 F   0  0  0  0  0  0  0  0  0  0  0  0
    7.7963   -7.7906   17.9837 C   0  0  0  0  0  0  0  0  0  0  0  0
   10.5884   -3.0725   16.7902 O   0  0  0  0  0  0  0  0  0  0  0  0
   10.4323   -5.3494   20.3516 C   0  0  0  0  0  0  0  0  0  0  0  0
    7.1156   -7.5454   16.8218 C   0  0  0  0  0  0  0  0  0  0  0  0
   10.3885   -4.4388   19.2773 C   0  0  0  0  0  0  0  0  0  0  0  0
    4.5160   -9.3822   15.0841 C   0  0  0  0  0  0  0  0  0  0  0  0
  1  3  4  0
  1 24  4  0
  2  6  4  0
  2 15  4  0
  3  5  4  0
  3  6  4  0
  4 21  4  0
  4 29  4  0
  5 15  4  0
  5 28  1  0
  6 16  4  0
  7 18  4  0
  7 26  4  0
  8 18  1  0
  8 19  4  0
  8 22  4  0
  9 12  4  0
  9 19  4  0
 10 12  4  0
 10 22  4  0
 11 20  4  0
 11 21  4  0
 12 23  1  0
 13 20  4  0
 13 29  4  0
 14 17  4  0
 14 28  4  0
 15 25  2  0
 16 27  4  0
 17 18  4  0
 20 27  1  0
 24 27  4  0
 26 28  4  0
M  END
$$$$

 Created by Python create_sdf_string function

 29 33  0  0  0  0  0  0  0  0999 V2000
    8.8270   -7.0288   18.4251 C   0  0  0  0  0  0  0  0  0  0  0  0
    9.1576   -4.6236   15.8860 O   0  0  0  0  0  0  0  0  0  0  0  0
    9.1509   -5.9108   17.7177 C   0  0  0  0  0  0  0  0  0  0  0  0
    3.6373   -9.5349   16.0582 N   0  0  0  0  0  0  0  0  0  0  0  0
    9.9275   -4.8001   18.0438 N   0  0  0  0  0  0  0  0  0  0  0  0
    8.5908   -5.7425   16.4412 C   0  0  0  0  0  0  0  0  0  0  0  0
   10.5993   -4.8981   21.6068 C   0  0  0  0  0  0  0  0  0  0  0  0
   10.4258   -3.0106   23.0998 C   0  0  0  0  0  0  0  0  0  0  0  0
   10.2148   -3.4364   25.4200 C   0  0  0  0  0  0  0  0  0  0  0  0
    9.7853   -1.1840   24.4927 C   0  0  0  0  0  0  0  0  0  0  0  0
    5.0276   -8.5227   17.5352 C   0  0  0  0  0  0  0  0  0  0  0  0
    9.8187   -2.0895   25.5800 C   0  0  0  0  0  0  0  0  0  0  0  0
    5.6473   -8.7216   15.3158 C   0  0  0  0  0  0  0  0  0  0  0  0
   10.7581   -3.1233   19.4720 N   0  0  0  0  0  0  0  0  0  0  0  0
    9.9571   -4.0573   16.8866 C   0  0  0  0  0  0  0  0  0  0  0  0
    7.6213   -6.5618   16.0087 C   0  0  0  0  0  0  0  0  0  0  0  0
   10.8583   -2.6527   20.7222 C   0  0  0  0  0  0  0  0  0  0  0  0
   10.6412   -3.5089   21.7936 C   0  0  0  0  0  0  0  0  0  0  0  0
   10.4972   -3.8968   24.1589 C   0  0  0  0  0  0  0  0  0  0  0  0
    5.9260   -8.2736   16.5517 C   0  0  0  0  0  0  0  0  0  0  0  0
    3.8816   -9.1166   17.2493 C   0  0  0  0  0  0  0  0  0  0  0  0
   10.1297   -1.6575   23.2324 C   0  0  0  0  0  0  0  0  0  0  0  0
    9.4684   -1.6929   26.7263 F   0  0  0  0  0  0  0  0  0  0  0  0
    7.7963   -7.7906   17.9837 C   0  0  0  0  0  0  0  0  0  0  0  0
   10.5884   -3.0725   16.7902 O   0  0  0  0  0  0  0  0  0  0  0  0
   10.4323   -5.3494   20.3516 C   0  0  0  0  0  0  0  0  0  0  0  0
    7.1156   -7.5454   16.8218 C   0  0  0  0  0  0  0  0  0  0  0  0
   10.3885   -4.4388   19.2773 C   0  0  0  0  0  0  0  0  0  0  0  0
    4.5160   -9.3822   15.0841 C   0  0  0  0  0  0  0  0  0  0  0  0
  1  3  4  0
  1 24  4  0
  2  6  4  0
  2 15  4  0
  3  5  4  0
  3  6  4  0
  4 21  4  0
  4 29  4  0
  5 15  4  0
  5 28  1  0
  6 16  4  0
  7 18  4  0
  7 26  4  0
  8 18  1  0
  8 19  4  0
  8 22  4  0
  9 12  4  0
  9 19  4  0
 10 12  4  0
 10 22  4  0
 11 20  4  0
 11 21  4  0
 12 23  1  0
 13 20  4  0
 13 29  4  0
 14 17  4  0
 14 28  4  0
 15 25  2  0
 16 27  4  0
 17 18  4  0
 20 27  1  0
 24 27  4  0
 26 28  4  0
M  END
$$$$

 Created by Python create_sdf_string function

 29 33  0  0  0  0  0  0  0  0999 V2000
    8.8270   -7.0288   18.4251 C   0  0  0  0  0  0  0  0  0  0  0  0
    9.1576   -4.6236   15.8860 O   0  0  0  0  0  0  0  0  0  0  0  0
    9.1509   -5.9108   17.7177 C   0  0  0  0  0  0  0  0  0  0  0  0
    3.6373   -9.5349   16.0582 N   0  0  0  0  0  0  0  0  0  0  0  0
    9.9275   -4.8001   18.0438 N   0  0  0  0  0  0  0  0  0  0  0  0
    8.5908   -5.7425   16.4412 C   0  0  0  0  0  0  0  0  0  0  0  0
   10.5993   -4.8981   21.6068 C   0  0  0  0  0  0  0  0  0  0  0  0
   10.4258   -3.0106   23.0998 C   0  0  0  0  0  0  0  0  0  0  0  0
   10.2148   -3.4364   25.4200 C   0  0  0  0  0  0  0  0  0  0  0  0
    9.7853   -1.1840   24.4927 C   0  0  0  0  0  0  0  0  0  0  0  0
    5.0276   -8.5227   17.5352 C   0  0  0  0  0  0  0  0  0  0  0  0
    9.8187   -2.0895   25.5800 C   0  0  0  0  0  0  0  0  0  0  0  0
    5.6473   -8.7216   15.3158 C   0  0  0  0  0  0  0  0  0  0  0  0
   10.7581   -3.1233   19.4720 N   0  0  0  0  0  0  0  0  0  0  0  0
    9.9571   -4.0573   16.8866 C   0  0  0  0  0  0  0  0  0  0  0  0
    7.6213   -6.5618   16.0087 C   0  0  0  0  0  0  0  0  0  0  0  0
   10.8583   -2.6527   20.7222 C   0  0  0  0  0  0  0  0  0  0  0  0
   10.6412   -3.5089   21.7936 C   0  0  0  0  0  0  0  0  0  0  0  0
   10.4972   -3.8968   24.1589 C   0  0  0  0  0  0  0  0  0  0  0  0
    5.9260   -8.2736   16.5517 C   0  0  0  0  0  0  0  0  0  0  0  0
    3.8816   -9.1166   17.2493 C   0  0  0  0  0  0  0  0  0  0  0  0
   10.1297   -1.6575   23.2324 C   0  0  0  0  0  0  0  0  0  0  0  0
    9.4684   -1.6929   26.7263 F   0  0  0  0  0  0  0  0  0  0  0  0
    7.7963   -7.7906   17.9837 C   0  0  0  0  0  0  0  0  0  0  0  0
   10.5884   -3.0725   16.7902 O   0  0  0  0  0  0  0  0  0  0  0  0
   10.4323   -5.3494   20.3516 C   0  0  0  0  0  0  0  0  0  0  0  0
    7.1156   -7.5454   16.8218 C   0  0  0  0  0  0  0  0  0  0  0  0
   10.3885   -4.4388   19.2773 C   0  0  0  0  0  0  0  0  0  0  0  0
    4.5160   -9.3822   15.0841 C   0  0  0  0  0  0  0  0  0  0  0  0
  1  3  4  0
  1 24  4  0
  2  6  4  0
  2 15  4  0
  3  5  4  0
  3  6  4  0
  4 21  4  0
  4 29  4  0
  5 15  4  0
  5 28  1  0
  6 16  4  0
  7 18  4  0
  7 26  4  0
  8 18  1  0
  8 19  4  0
  8 22  4  0
  9 12  4  0
  9 19  4  0
 10 12  4  0
 10 22  4  0
 11 20  4  0
 11 21  4  0
 12 23  1  0
 13 20  4  0
 13 29  4  0
 14 17  4  0
 14 28  4  0
 15 25  2  0
 16 27  4  0
 17 18  4  0
 20 27  1  0
 24 27  4  0
 26 28  4  0
M  END
$$$$

 Created by Python create_sdf_string function

 29 33  0  0  0  0  0  0  0  0999 V2000
    8.8270   -7.0288   18.4251 C   0  0  0  0  0  0  0  0  0  0  0  0
    9.1576   -4.6236   15.8860 O   0  0  0  0  0  0  0  0  0  0  0  0
    9.1509   -5.9108   17.7177 C   0  0  0  0  0  0  0  0  0  0  0  0
    3.6373   -9.5349   16.0582 N   0  0  0  0  0  0  0  0  0  0  0  0
    9.9275   -4.8001   18.0438 N   0  0  0  0  0  0  0  0  0  0  0  0
    8.5908   -5.7425   16.4412 C   0  0  0  0  0  0  0  0  0  0  0  0
   10.5993   -4.8981   21.6068 C   0  0  0  0  0  0  0  0  0  0  0  0
   10.4258   -3.0106   23.0998 C   0  0  0  0  0  0  0  0  0  0  0  0
   10.2148   -3.4364   25.4200 C   0  0  0  0  0  0  0  0  0  0  0  0
    9.7853   -1.1840   24.4927 C   0  0  0  0  0  0  0  0  0  0  0  0
    5.0276   -8.5227   17.5352 C   0  0  0  0  0  0  0  0  0  0  0  0
    9.8187   -2.0895   25.5800 C   0  0  0  0  0  0  0  0  0  0  0  0
    5.6473   -8.7216   15.3158 C   0  0  0  0  0  0  0  0  0  0  0  0
   10.7581   -3.1233   19.4720 N   0  0  0  0  0  0  0  0  0  0  0  0
    9.9571   -4.0573   16.8866 C   0  0  0  0  0  0  0  0  0  0  0  0
    7.6213   -6.5618   16.0087 C   0  0  0  0  0  0  0  0  0  0  0  0
   10.8583   -2.6527   20.7222 C   0  0  0  0  0  0  0  0  0  0  0  0
   10.6412   -3.5089   21.7936 C   0  0  0  0  0  0  0  0  0  0  0  0
   10.4972   -3.8968   24.1589 C   0  0  0  0  0  0  0  0  0  0  0  0
    5.9260   -8.2736   16.5517 C   0  0  0  0  0  0  0  0  0  0  0  0
    3.8816   -9.1166   17.2493 C   0  0  0  0  0  0  0  0  0  0  0  0
   10.1297   -1.6575   23.2324 C   0  0  0  0  0  0  0  0  0  0  0  0
    9.4684   -1.6929   26.7263 F   0  0  0  0  0  0  0  0  0  0  0  0
    7.7963   -7.7906   17.9837 C   0  0  0  0  0  0  0  0  0  0  0  0
   10.5884   -3.0725   16.7902 O   0  0  0  0  0  0  0  0  0  0  0  0
   10.4323   -5.3494   20.3516 C   0  0  0  0  0  0  0  0  0  0  0  0
    7.1156   -7.5454   16.8218 C   0  0  0  0  0  0  0  0  0  0  0  0
   10.3885   -4.4388   19.2773 C   0  0  0  0  0  0  0  0  0  0  0  0
    4.5160   -9.3822   15.0841 C   0  0  0  0  0  0  0  0  0  0  0  0
  1  3  4  0
  1 24  4  0
  2  6  4  0
  2 15  4  0
  3  5  4  0
  3  6  4  0
  4 21  4  0
  4 29  4  0
  5 15  4  0
  5 28  1  0
  6 16  4  0
  7 18  4  0
  7 26  4  0
  8 18  1  0
  8 19  4  0
  8 22  4  0
  9 12  4  0
  9 19  4  0
 10 12  4  0
 10 22  4  0
 11 20  4  0
 11 21  4  0
 12 23  1  0
 13 20  4  0
 13 29  4  0
 14 17  4  0
 14 28  4  0
 15 25  2  0
 16 27  4  0
 17 18  4  0
 20 27  1  0
 24 27  4  0
 26 28  4  0
M  END
$$$$

 Created by Python create_sdf_string function

 29 33  0  0  0  0  0  0  0  0999 V2000
    8.8270   -7.0288   18.4251 C   0  0  0  0  0  0  0  0  0  0  0  0
    9.1576   -4.6236   15.8860 O   0  0  0  0  0  0  0  0  0  0  0  0
    9.1509   -5.9108   17.7177 C   0  0  0  0  0  0  0  0  0  0  0  0
    3.6373   -9.5349   16.0582 N   0  0  0  0  0  0  0  0  0  0  0  0
    9.9275   -4.8001   18.0438 N   0  0  0  0  0  0  0  0  0  0  0  0
    8.5908   -5.7425   16.4412 C   0  0  0  0  0  0  0  0  0  0  0  0
   10.5993   -4.8981   21.6068 C   0  0  0  0  0  0  0  0  0  0  0  0
   10.4258   -3.0106   23.0998 C   0  0  0  0  0  0  0  0  0  0  0  0
   10.2148   -3.4364   25.4200 C   0  0  0  0  0  0  0  0  0  0  0  0
    9.7853   -1.1840   24.4927 C   0  0  0  0  0  0  0  0  0  0  0  0
    5.0276   -8.5227   17.5352 C   0  0  0  0  0  0  0  0  0  0  0  0
    9.8187   -2.0895   25.5800 C   0  0  0  0  0  0  0  0  0  0  0  0
    5.6473   -8.7216   15.3158 C   0  0  0  0  0  0  0  0  0  0  0  0
   10.7581   -3.1233   19.4720 N   0  0  0  0  0  0  0  0  0  0  0  0
    9.9571   -4.0573   16.8866 C   0  0  0  0  0  0  0  0  0  0  0  0
    7.6213   -6.5618   16.0087 C   0  0  0  0  0  0  0  0  0  0  0  0
   10.8583   -2.6527   20.7222 C   0  0  0  0  0  0  0  0  0  0  0  0
   10.6412   -3.5089   21.7936 C   0  0  0  0  0  0  0  0  0  0  0  0
   10.4972   -3.8968   24.1589 C   0  0  0  0  0  0  0  0  0  0  0  0
    5.9260   -8.2736   16.5517 C   0  0  0  0  0  0  0  0  0  0  0  0
    3.8816   -9.1166   17.2493 C   0  0  0  0  0  0  0  0  0  0  0  0
   10.1297   -1.6575   23.2324 C   0  0  0  0  0  0  0  0  0  0  0  0
    9.4684   -1.6929   26.7263 F   0  0  0  0  0  0  0  0  0  0  0  0
    7.7963   -7.7906   17.9837 C   0  0  0  0  0  0  0  0  0  0  0  0
   10.5884   -3.0725   16.7902 O   0  0  0  0  0  0  0  0  0  0  0  0
   10.4323   -5.3494   20.3516 C   0  0  0  0  0  0  0  0  0  0  0  0
    7.1156   -7.5454   16.8218 C   0  0  0  0  0  0  0  0  0  0  0  0
   10.3885   -4.4388   19.2773 C   0  0  0  0  0  0  0  0  0  0  0  0
    4.5160   -9.3822   15.0841 C   0  0  0  0  0  0  0  0  0  0  0  0
  1  3  4  0
  1 24  4  0
  2  6  4  0
  2 15  4  0
  3  5  4  0
  3  6  4  0
  4 21  4  0
  4 29  4  0
  5 15  4  0
  5 28  1  0
  6 16  4  0
  7 18  4  0
  7 26  4  0
  8 18  1  0
  8 19  4  0
  8 22  4  0
  9 12  4  0
  9 19  4  0
 10 12  4  0
 10 22  4  0
 11 20  4  0
 11 21  4  0
 12 23  1  0
 13 20  4  0
 13 29  4  0
 14 17  4  0
 14 28  4  0
 15 25  2  0
 16 27  4  0
 17 18  4  0
 20 27  1  0
 24 27  4  0
 26 28  4  0
M  END
$$$$

 Created by Python create_sdf_string function

 29 33  0  0  0  0  0  0  0  0999 V2000
    8.8270   -7.0288   18.4251 C   0  0  0  0  0  0  0  0  0  0  0  0
    9.1576   -4.6236   15.8860 O   0  0  0  0  0  0  0  0  0  0  0  0
    9.1509   -5.9108   17.7177 C   0  0  0  0  0  0  0  0  0  0  0  0
    3.6373   -9.5349   16.0582 N   0  0  0  0  0  0  0  0  0  0  0  0
    9.9275   -4.8001   18.0438 N   0  0  0  0  0  0  0  0  0  0  0  0
    8.5908   -5.7425   16.4412 C   0  0  0  0  0  0  0  0  0  0  0  0
   10.5993   -4.8981   21.6068 C   0  0  0  0  0  0  0  0  0  0  0  0
   10.4258   -3.0106   23.0998 C   0  0  0  0  0  0  0  0  0  0  0  0
   10.2148   -3.4364   25.4200 C   0  0  0  0  0  0  0  0  0  0  0  0
    9.7853   -1.1840   24.4927 C   0  0  0  0  0  0  0  0  0  0  0  0
    5.0276   -8.5227   17.5352 C   0  0  0  0  0  0  0  0  0  0  0  0
    9.8187   -2.0895   25.5800 C   0  0  0  0  0  0  0  0  0  0  0  0
    5.6473   -8.7216   15.3158 C   0  0  0  0  0  0  0  0  0  0  0  0
   10.7581   -3.1233   19.4720 N   0  0  0  0  0  0  0  0  0  0  0  0
    9.9571   -4.0573   16.8866 C   0  0  0  0  0  0  0  0  0  0  0  0
    7.6213   -6.5618   16.0087 C   0  0  0  0  0  0  0  0  0  0  0  0
   10.8583   -2.6527   20.7222 C   0  0  0  0  0  0  0  0  0  0  0  0
   10.6412   -3.5089   21.7936 C   0  0  0  0  0  0  0  0  0  0  0  0
   10.4972   -3.8968   24.1589 C   0  0  0  0  0  0  0  0  0  0  0  0
    5.9260   -8.2736   16.5517 C   0  0  0  0  0  0  0  0  0  0  0  0
    3.8816   -9.1166   17.2493 C   0  0  0  0  0  0  0  0  0  0  0  0
   10.1297   -1.6575   23.2324 C   0  0  0  0  0  0  0  0  0  0  0  0
    9.4684   -1.6929   26.7263 F   0  0  0  0  0  0  0  0  0  0  0  0
    7.7963   -7.7906   17.9837 C   0  0  0  0  0  0  0  0  0  0  0  0
   10.5884   -3.0725   16.7902 O   0  0  0  0  0  0  0  0  0  0  0  0
   10.4323   -5.3494   20.3516 C   0  0  0  0  0  0  0  0  0  0  0  0
    7.1156   -7.5454   16.8218 C   0  0  0  0  0  0  0  0  0  0  0  0
   10.3885   -4.4388   19.2773 C   0  0  0  0  0  0  0  0  0  0  0  0
    4.5160   -9.3822   15.0841 C   0  0  0  0  0  0  0  0  0  0  0  0
  1  3  4  0
  1 24  4  0
  2  6  4  0
  2 15  4  0
  3  5  4  0
  3  6  4  0
  4 21  4  0
  4 29  4  0
  5 15  4  0
  5 28  1  0
  6 16  4  0
  7 18  4  0
  7 26  4  0
  8 18  1  0
  8 19  4  0
  8 22  4  0
  9 12  4  0
  9 19  4  0
 10 12  4  0
 10 22  4  0
 11 20  4  0
 11 21  4  0
 12 23  1  0
 13 20  4  0
 13 29  4  0
 14 17  4  0
 14 28  4  0
 15 25  2  0
 16 27  4  0
 17 18  4  0
 20 27  1  0
 24 27  4  0
 26 28  4  0
M  END
$$$$

 Created by Python create_sdf_string function

 29 33  0  0  0  0  0  0  0  0999 V2000
    8.8270   -7.0288   18.4251 C   0  0  0  0  0  0  0  0  0  0  0  0
    9.1576   -4.6236   15.8860 O   0  0  0  0  0  0  0  0  0  0  0  0
    9.1509   -5.9108   17.7177 C   0  0  0  0  0  0  0  0  0  0  0  0
    3.6373   -9.5349   16.0582 N   0  0  0  0  0  0  0  0  0  0  0  0
    9.9275   -4.8001   18.0438 N   0  0  0  0  0  0  0  0  0  0  0  0
    8.5908   -5.7425   16.4412 C   0  0  0  0  0  0  0  0  0  0  0  0
   10.5993   -4.8981   21.6068 C   0  0  0  0  0  0  0  0  0  0  0  0
   10.4258   -3.0106   23.0998 C   0  0  0  0  0  0  0  0  0  0  0  0
   10.2148   -3.4364   25.4200 C   0  0  0  0  0  0  0  0  0  0  0  0
    9.7853   -1.1840   24.4927 C   0  0  0  0  0  0  0  0  0  0  0  0
    5.0276   -8.5227   17.5352 C   0  0  0  0  0  0  0  0  0  0  0  0
    9.8187   -2.0895   25.5800 C   0  0  0  0  0  0  0  0  0  0  0  0
    5.6473   -8.7216   15.3158 C   0  0  0  0  0  0  0  0  0  0  0  0
   10.7581   -3.1233   19.4720 N   0  0  0  0  0  0  0  0  0  0  0  0
    9.9571   -4.0573   16.8866 C   0  0  0  0  0  0  0  0  0  0  0  0
    7.6213   -6.5618   16.0087 C   0  0  0  0  0  0  0  0  0  0  0  0
   10.8583   -2.6527   20.7222 C   0  0  0  0  0  0  0  0  0  0  0  0
   10.6412   -3.5089   21.7936 C   0  0  0  0  0  0  0  0  0  0  0  0
   10.4972   -3.8968   24.1589 C   0  0  0  0  0  0  0  0  0  0  0  0
    5.9260   -8.2736   16.5517 C   0  0  0  0  0  0  0  0  0  0  0  0
    3.8816   -9.1166   17.2493 C   0  0  0  0  0  0  0  0  0  0  0  0
   10.1297   -1.6575   23.2324 C   0  0  0  0  0  0  0  0  0  0  0  0
    9.4684   -1.6929   26.7263 F   0  0  0  0  0  0  0  0  0  0  0  0
    7.7963   -7.7906   17.9837 C   0  0  0  0  0  0  0  0  0  0  0  0
   10.5884   -3.0725   16.7902 O   0  0  0  0  0  0  0  0  0  0  0  0
   10.4323   -5.3494   20.3516 C   0  0  0  0  0  0  0  0  0  0  0  0
    7.1156   -7.5454   16.8218 C   0  0  0  0  0  0  0  0  0  0  0  0
   10.3885   -4.4388   19.2773 C   0  0  0  0  0  0  0  0  0  0  0  0
    4.5160   -9.3822   15.0841 C   0  0  0  0  0  0  0  0  0  0  0  0
  1  3  4  0
  1 24  4  0
  2  6  4  0
  2 15  4  0
  3  5  4  0
  3  6  4  0
  4 21  4  0
  4 29  4  0
  5 15  4  0
  5 28  1  0
  6 16  4  0
  7 18  4  0
  7 26  4  0
  8 18  1  0
  8 19  4  0
  8 22  4  0
  9 12  4  0
  9 19  4  0
 10 12  4  0
 10 22  4  0
 11 20  4  0
 11 21  4  0
 12 23  1  0
 13 20  4  0
 13 29  4  0
 14 17  4  0
 14 28  4  0
 15 25  2  0
 16 27  4  0
 17 18  4  0
 20 27  1  0
 24 27  4  0
 26 28  4  0
M  END
$$$$

 Created by Python create_sdf_string function

 29 33  0  0  0  0  0  0  0  0999 V2000
    8.8270   -7.0288   18.4251 C   0  0  0  0  0  0  0  0  0  0  0  0
    9.1576   -4.6236   15.8860 O   0  0  0  0  0  0  0  0  0  0  0  0
    9.1509   -5.9108   17.7177 C   0  0  0  0  0  0  0  0  0  0  0  0
    3.6373   -9.5349   16.0582 N   0  0  0  0  0  0  0  0  0  0  0  0
    9.9275   -4.8001   18.0438 N   0  0  0  0  0  0  0  0  0  0  0  0
    8.5908   -5.7425   16.4412 C   0  0  0  0  0  0  0  0  0  0  0  0
   10.5993   -4.8981   21.6068 C   0  0  0  0  0  0  0  0  0  0  0  0
   10.4258   -3.0106   23.0998 C   0  0  0  0  0  0  0  0  0  0  0  0
   10.2148   -3.4364   25.4200 C   0  0  0  0  0  0  0  0  0  0  0  0
    9.7853   -1.1840   24.4927 C   0  0  0  0  0  0  0  0  0  0  0  0
    5.0276   -8.5227   17.5352 C   0  0  0  0  0  0  0  0  0  0  0  0
    9.8187   -2.0895   25.5800 C   0  0  0  0  0  0  0  0  0  0  0  0
    5.6473   -8.7216   15.3158 C   0  0  0  0  0  0  0  0  0  0  0  0
   10.7581   -3.1233   19.4720 N   0  0  0  0  0  0  0  0  0  0  0  0
    9.9571   -4.0573   16.8866 C   0  0  0  0  0  0  0  0  0  0  0  0
    7.6213   -6.5618   16.0087 C   0  0  0  0  0  0  0  0  0  0  0  0
   10.8583   -2.6527   20.7222 C   0  0  0  0  0  0  0  0  0  0  0  0
   10.6412   -3.5089   21.7936 C   0  0  0  0  0  0  0  0  0  0  0  0
   10.4972   -3.8968   24.1589 C   0  0  0  0  0  0  0  0  0  0  0  0
    5.9260   -8.2736   16.5517 C   0  0  0  0  0  0  0  0  0  0  0  0
    3.8816   -9.1166   17.2493 C   0  0  0  0  0  0  0  0  0  0  0  0
   10.1297   -1.6575   23.2324 C   0  0  0  0  0  0  0  0  0  0  0  0
    9.4684   -1.6929   26.7263 F   0  0  0  0  0  0  0  0  0  0  0  0
    7.7963   -7.7906   17.9837 C   0  0  0  0  0  0  0  0  0  0  0  0
   10.5884   -3.0725   16.7902 O   0  0  0  0  0  0  0  0  0  0  0  0
   10.4323   -5.3494   20.3516 C   0  0  0  0  0  0  0  0  0  0  0  0
    7.1156   -7.5454   16.8218 C   0  0  0  0  0  0  0  0  0  0  0  0
   10.3885   -4.4388   19.2773 C   0  0  0  0  0  0  0  0  0  0  0  0
    4.5160   -9.3822   15.0841 C   0  0  0  0  0  0  0  0  0  0  0  0
  1  3  4  0
  1 24  4  0
  2  6  4  0
  2 15  4  0
  3  5  4  0
  3  6  4  0
  4 21  4  0
  4 29  4  0
  5 15  4  0
  5 28  1  0
  6 16  4  0
  7 18  4  0
  7 26  4  0
  8 18  1  0
  8 19  4  0
  8 22  4  0
  9 12  4  0
  9 19  4  0
 10 12  4  0
 10 22  4  0
 11 20  4  0
 11 21  4  0
 12 23  1  0
 13 20  4  0
 13 29  4  0
 14 17  4  0
 14 28  4  0
 15 25  2  0
 16 27  4  0
 17 18  4  0
 20 27  1  0
 24 27  4  0
 26 28  4  0
M  END
$$$$

 Created by Python create_sdf_string function

 29 33  0  0  0  0  0  0  0  0999 V2000
    8.8270   -7.0288   18.4251 C   0  0  0  0  0  0  0  0  0  0  0  0
    9.1576   -4.6236   15.8860 O   0  0  0  0  0  0  0  0  0  0  0  0
    9.1509   -5.9108   17.7177 C   0  0  0  0  0  0  0  0  0  0  0  0
    3.6373   -9.5349   16.0582 N   0  0  0  0  0  0  0  0  0  0  0  0
    9.9275   -4.8001   18.0438 N   0  0  0  0  0  0  0  0  0  0  0  0
    8.5908   -5.7425   16.4412 C   0  0  0  0  0  0  0  0  0  0  0  0
   10.5993   -4.8981   21.6068 C   0  0  0  0  0  0  0  0  0  0  0  0
   10.4258   -3.0106   23.0998 C   0  0  0  0  0  0  0  0  0  0  0  0
   10.2148   -3.4364   25.4200 C   0  0  0  0  0  0  0  0  0  0  0  0
    9.7853   -1.1840   24.4927 C   0  0  0  0  0  0  0  0  0  0  0  0
    5.0276   -8.5227   17.5352 C   0  0  0  0  0  0  0  0  0  0  0  0
    9.8187   -2.0895   25.5800 C   0  0  0  0  0  0  0  0  0  0  0  0
    5.6473   -8.7216   15.3158 C   0  0  0  0  0  0  0  0  0  0  0  0
   10.7581   -3.1233   19.4720 N   0  0  0  0  0  0  0  0  0  0  0  0
    9.9571   -4.0573   16.8866 C   0  0  0  0  0  0  0  0  0  0  0  0
    7.6213   -6.5618   16.0087 C   0  0  0  0  0  0  0  0  0  0  0  0
   10.8583   -2.6527   20.7222 C   0  0  0  0  0  0  0  0  0  0  0  0
   10.6412   -3.5089   21.7936 C   0  0  0  0  0  0  0  0  0  0  0  0
   10.4972   -3.8968   24.1589 C   0  0  0  0  0  0  0  0  0  0  0  0
    5.9260   -8.2736   16.5517 C   0  0  0  0  0  0  0  0  0  0  0  0
    3.8816   -9.1166   17.2493 C   0  0  0  0  0  0  0  0  0  0  0  0
   10.1297   -1.6575   23.2324 C   0  0  0  0  0  0  0  0  0  0  0  0
    9.4684   -1.6929   26.7263 F   0  0  0  0  0  0  0  0  0  0  0  0
    7.7963   -7.7906   17.9837 C   0  0  0  0  0  0  0  0  0  0  0  0
   10.5884   -3.0725   16.7902 O   0  0  0  0  0  0  0  0  0  0  0  0
   10.4323   -5.3494   20.3516 C   0  0  0  0  0  0  0  0  0  0  0  0
    7.1156   -7.5454   16.8218 C   0  0  0  0  0  0  0  0  0  0  0  0
   10.3885   -4.4388   19.2773 C   0  0  0  0  0  0  0  0  0  0  0  0
    4.5160   -9.3822   15.0841 C   0  0  0  0  0  0  0  0  0  0  0  0
  1  3  4  0
  1 24  4  0
  2  6  4  0
  2 15  4  0
  3  5  4  0
  3  6  4  0
  4 21  4  0
  4 29  4  0
  5 15  4  0
  5 28  1  0
  6 16  4  0
  7 18  4  0
  7 26  4  0
  8 18  1  0
  8 19  4  0
  8 22  4  0
  9 12  4  0
  9 19  4  0
 10 12  4  0
 10 22  4  0
 11 20  4  0
 11 21  4  0
 12 23  1  0
 13 20  4  0
 13 29  4  0
 14 17  4  0
 14 28  4  0
 15 25  2  0
 16 27  4  0
 17 18  4  0
 20 27  1  0
 24 27  4  0
 26 28  4  0
M  END
$$$$

 Created by Python create_sdf_string function

 29 33  0  0  0  0  0  0  0  0999 V2000
    8.8270   -7.0288   18.4251 C   0  0  0  0  0  0  0  0  0  0  0  0
    9.1576   -4.6236   15.8860 O   0  0  0  0  0  0  0  0  0  0  0  0
    9.1509   -5.9108   17.7177 C   0  0  0  0  0  0  0  0  0  0  0  0
    3.6373   -9.5349   16.0582 N   0  0  0  0  0  0  0  0  0  0  0  0
    9.9275   -4.8001   18.0438 N   0  0  0  0  0  0  0  0  0  0  0  0
    8.5908   -5.7425   16.4412 C   0  0  0  0  0  0  0  0  0  0  0  0
   10.5993   -4.8981   21.6068 C   0  0  0  0  0  0  0  0  0  0  0  0
   10.4258   -3.0106   23.0998 C   0  0  0  0  0  0  0  0  0  0  0  0
   10.2148   -3.4364   25.4200 C   0  0  0  0  0  0  0  0  0  0  0  0
    9.7853   -1.1840   24.4927 C   0  0  0  0  0  0  0  0  0  0  0  0
    5.0276   -8.5227   17.5352 C   0  0  0  0  0  0  0  0  0  0  0  0
    9.8187   -2.0895   25.5800 C   0  0  0  0  0  0  0  0  0  0  0  0
    5.6473   -8.7216   15.3158 C   0  0  0  0  0  0  0  0  0  0  0  0
   10.7581   -3.1233   19.4720 N   0  0  0  0  0  0  0  0  0  0  0  0
    9.9571   -4.0573   16.8866 C   0  0  0  0  0  0  0  0  0  0  0  0
    7.6213   -6.5618   16.0087 C   0  0  0  0  0  0  0  0  0  0  0  0
   10.8583   -2.6527   20.7222 C   0  0  0  0  0  0  0  0  0  0  0  0
   10.6412   -3.5089   21.7936 C   0  0  0  0  0  0  0  0  0  0  0  0
   10.4972   -3.8968   24.1589 C   0  0  0  0  0  0  0  0  0  0  0  0
    5.9260   -8.2736   16.5517 C   0  0  0  0  0  0  0  0  0  0  0  0
    3.8816   -9.1166   17.2493 C   0  0  0  0  0  0  0  0  0  0  0  0
   10.1297   -1.6575   23.2324 C   0  0  0  0  0  0  0  0  0  0  0  0
    9.4684   -1.6929   26.7263 F   0  0  0  0  0  0  0  0  0  0  0  0
    7.7963   -7.7906   17.9837 C   0  0  0  0  0  0  0  0  0  0  0  0
   10.5884   -3.0725   16.7902 O   0  0  0  0  0  0  0  0  0  0  0  0
   10.4323   -5.3494   20.3516 C   0  0  0  0  0  0  0  0  0  0  0  0
    7.1156   -7.5454   16.8218 C   0  0  0  0  0  0  0  0  0  0  0  0
   10.3885   -4.4388   19.2773 C   0  0  0  0  0  0  0  0  0  0  0  0
    4.5160   -9.3822   15.0841 C   0  0  0  0  0  0  0  0  0  0  0  0
  1  3  4  0
  1 24  4  0
  2  6  4  0
  2 15  4  0
  3  5  4  0
  3  6  4  0
  4 21  4  0
  4 29  4  0
  5 15  4  0
  5 28  1  0
  6 16  4  0
  7 18  4  0
  7 26  4  0
  8 18  1  0
  8 19  4  0
  8 22  4  0
  9 12  4  0
  9 19  4  0
 10 12  4  0
 10 22  4  0
 11 20  4  0
 11 21  4  0
 12 23  1  0
 13 20  4  0
 13 29  4  0
 14 17  4  0
 14 28  4  0
 15 25  2  0
 16 27  4  0
 17 18  4  0
 20 27  1  0
 24 27  4  0
 26 28  4  0
M  END
$$$$

 Created by Python create_sdf_string function

 29 33  0  0  0  0  0  0  0  0999 V2000
    8.8270   -7.0288   18.4251 C   0  0  0  0  0  0  0  0  0  0  0  0
    9.1576   -4.6236   15.8860 O   0  0  0  0  0  0  0  0  0  0  0  0
    9.1509   -5.9108   17.7177 C   0  0  0  0  0  0  0  0  0  0  0  0
    3.6373   -9.5349   16.0582 N   0  0  0  0  0  0  0  0  0  0  0  0
    9.9275   -4.8001   18.0438 N   0  0  0  0  0  0  0  0  0  0  0  0
    8.5908   -5.7425   16.4412 C   0  0  0  0  0  0  0  0  0  0  0  0
   10.5993   -4.8981   21.6068 C   0  0  0  0  0  0  0  0  0  0  0  0
   10.4258   -3.0106   23.0998 C   0  0  0  0  0  0  0  0  0  0  0  0
   10.2148   -3.4364   25.4200 C   0  0  0  0  0  0  0  0  0  0  0  0
    9.7853   -1.1840   24.4927 C   0  0  0  0  0  0  0  0  0  0  0  0
    5.0276   -8.5227   17.5352 C   0  0  0  0  0  0  0  0  0  0  0  0
    9.8187   -2.0895   25.5800 C   0  0  0  0  0  0  0  0  0  0  0  0
    5.6473   -8.7216   15.3158 C   0  0  0  0  0  0  0  0  0  0  0  0
   10.7581   -3.1233   19.4720 N   0  0  0  0  0  0  0  0  0  0  0  0
    9.9571   -4.0573   16.8866 C   0  0  0  0  0  0  0  0  0  0  0  0
    7.6213   -6.5618   16.0087 C   0  0  0  0  0  0  0  0  0  0  0  0
   10.8583   -2.6527   20.7222 C   0  0  0  0  0  0  0  0  0  0  0  0
   10.6412   -3.5089   21.7936 C   0  0  0  0  0  0  0  0  0  0  0  0
   10.4972   -3.8968   24.1589 C   0  0  0  0  0  0  0  0  0  0  0  0
    5.9260   -8.2736   16.5517 C   0  0  0  0  0  0  0  0  0  0  0  0
    3.8816   -9.1166   17.2493 C   0  0  0  0  0  0  0  0  0  0  0  0
   10.1297   -1.6575   23.2324 C   0  0  0  0  0  0  0  0  0  0  0  0
    9.4684   -1.6929   26.7263 F   0  0  0  0  0  0  0  0  0  0  0  0
    7.7963   -7.7906   17.9837 C   0  0  0  0  0  0  0  0  0  0  0  0
   10.5884   -3.0725   16.7902 O   0  0  0  0  0  0  0  0  0  0  0  0
   10.4323   -5.3494   20.3516 C   0  0  0  0  0  0  0  0  0  0  0  0
    7.1156   -7.5454   16.8218 C   0  0  0  0  0  0  0  0  0  0  0  0
   10.3885   -4.4388   19.2773 C   0  0  0  0  0  0  0  0  0  0  0  0
    4.5160   -9.3822   15.0841 C   0  0  0  0  0  0  0  0  0  0  0  0
  1  3  4  0
  1 24  4  0
  2  6  4  0
  2 15  4  0
  3  5  4  0
  3  6  4  0
  4 21  4  0
  4 29  4  0
  5 15  4  0
  5 28  1  0
  6 16  4  0
  7 18  4  0
  7 26  4  0
  8 18  1  0
  8 19  4  0
  8 22  4  0
  9 12  4  0
  9 19  4  0
 10 12  4  0
 10 22  4  0
 11 20  4  0
 11 21  4  0
 12 23  1  0
 13 20  4  0
 13 29  4  0
 14 17  4  0
 14 28  4  0
 15 25  2  0
 16 27  4  0
 17 18  4  0
 20 27  1  0
 24 27  4  0
 26 28  4  0
M  END
$$$$

 Created by Python create_sdf_string function

 29 33  0  0  0  0  0  0  0  0999 V2000
    8.8270   -7.0288   18.4251 C   0  0  0  0  0  0  0  0  0  0  0  0
    9.1576   -4.6236   15.8860 O   0  0  0  0  0  0  0  0  0  0  0  0
    9.1509   -5.9108   17.7177 C   0  0  0  0  0  0  0  0  0  0  0  0
    3.6373   -9.5349   16.0582 N   0  0  0  0  0  0  0  0  0  0  0  0
    9.9275   -4.8001   18.0438 N   0  0  0  0  0  0  0  0  0  0  0  0
    8.5908   -5.7425   16.4412 C   0  0  0  0  0  0  0  0  0  0  0  0
   10.5993   -4.8981   21.6068 C   0  0  0  0  0  0  0  0  0  0  0  0
   10.4258   -3.0106   23.0998 C   0  0  0  0  0  0  0  0  0  0  0  0
   10.2148   -3.4364   25.4200 C   0  0  0  0  0  0  0  0  0  0  0  0
    9.7853   -1.1840   24.4927 C   0  0  0  0  0  0  0  0  0  0  0  0
    5.0276   -8.5227   17.5352 C   0  0  0  0  0  0  0  0  0  0  0  0
    9.8187   -2.0895   25.5800 C   0  0  0  0  0  0  0  0  0  0  0  0
    5.6473   -8.7216   15.3158 C   0  0  0  0  0  0  0  0  0  0  0  0
   10.7581   -3.1233   19.4720 N   0  0  0  0  0  0  0  0  0  0  0  0
    9.9571   -4.0573   16.8866 C   0  0  0  0  0  0  0  0  0  0  0  0
    7.6213   -6.5618   16.0087 C   0  0  0  0  0  0  0  0  0  0  0  0
   10.8583   -2.6527   20.7222 C   0  0  0  0  0  0  0  0  0  0  0  0
   10.6412   -3.5089   21.7936 C   0  0  0  0  0  0  0  0  0  0  0  0
   10.4972   -3.8968   24.1589 C   0  0  0  0  0  0  0  0  0  0  0  0
    5.9260   -8.2736   16.5517 C   0  0  0  0  0  0  0  0  0  0  0  0
    3.8816   -9.1166   17.2493 C   0  0  0  0  0  0  0  0  0  0  0  0
   10.1297   -1.6575   23.2324 C   0  0  0  0  0  0  0  0  0  0  0  0
    9.4684   -1.6929   26.7263 F   0  0  0  0  0  0  0  0  0  0  0  0
    7.7963   -7.7906   17.9837 C   0  0  0  0  0  0  0  0  0  0  0  0
   10.5884   -3.0725   16.7902 O   0  0  0  0  0  0  0  0  0  0  0  0
   10.4323   -5.3494   20.3516 C   0  0  0  0  0  0  0  0  0  0  0  0
    7.1156   -7.5454   16.8218 C   0  0  0  0  0  0  0  0  0  0  0  0
   10.3885   -4.4388   19.2773 C   0  0  0  0  0  0  0  0  0  0  0  0
    4.5160   -9.3822   15.0841 C   0  0  0  0  0  0  0  0  0  0  0  0
  1  3  4  0
  1 24  4  0
  2  6  4  0
  2 15  4  0
  3  5  4  0
  3  6  4  0
  4 21  4  0
  4 29  4  0
  5 15  4  0
  5 28  1  0
  6 16  4  0
  7 18  4  0
  7 26  4  0
  8 18  1  0
  8 19  4  0
  8 22  4  0
  9 12  4  0
  9 19  4  0
 10 12  4  0
 10 22  4  0
 11 20  4  0
 11 21  4  0
 12 23  1  0
 13 20  4  0
 13 29  4  0
 14 17  4  0
 14 28  4  0
 15 25  2  0
 16 27  4  0
 17 18  4  0
 20 27  1  0
 24 27  4  0
 26 28  4  0
M  END
$$$$

 Created by Python create_sdf_string function

 29 33  0  0  0  0  0  0  0  0999 V2000
    8.8270   -7.0288   18.4251 C   0  0  0  0  0  0  0  0  0  0  0  0
    9.1576   -4.6236   15.8860 O   0  0  0  0  0  0  0  0  0  0  0  0
    9.1509   -5.9108   17.7177 C   0  0  0  0  0  0  0  0  0  0  0  0
    3.6373   -9.5349   16.0582 N   0  0  0  0  0  0  0  0  0  0  0  0
    9.9275   -4.8001   18.0438 N   0  0  0  0  0  0  0  0  0  0  0  0
    8.5908   -5.7425   16.4412 C   0  0  0  0  0  0  0  0  0  0  0  0
   10.5993   -4.8981   21.6068 C   0  0  0  0  0  0  0  0  0  0  0  0
   10.4258   -3.0106   23.0998 C   0  0  0  0  0  0  0  0  0  0  0  0
   10.2148   -3.4364   25.4200 C   0  0  0  0  0  0  0  0  0  0  0  0
    9.7853   -1.1840   24.4927 C   0  0  0  0  0  0  0  0  0  0  0  0
    5.0276   -8.5227   17.5352 C   0  0  0  0  0  0  0  0  0  0  0  0
    9.8187   -2.0895   25.5800 C   0  0  0  0  0  0  0  0  0  0  0  0
    5.6473   -8.7216   15.3158 C   0  0  0  0  0  0  0  0  0  0  0  0
   10.7581   -3.1233   19.4720 N   0  0  0  0  0  0  0  0  0  0  0  0
    9.9571   -4.0573   16.8866 C   0  0  0  0  0  0  0  0  0  0  0  0
    7.6213   -6.5618   16.0087 C   0  0  0  0  0  0  0  0  0  0  0  0
   10.8583   -2.6527   20.7222 C   0  0  0  0  0  0  0  0  0  0  0  0
   10.6412   -3.5089   21.7936 C   0  0  0  0  0  0  0  0  0  0  0  0
   10.4972   -3.8968   24.1589 C   0  0  0  0  0  0  0  0  0  0  0  0
    5.9260   -8.2736   16.5517 C   0  0  0  0  0  0  0  0  0  0  0  0
    3.8816   -9.1166   17.2493 C   0  0  0  0  0  0  0  0  0  0  0  0
   10.1297   -1.6575   23.2324 C   0  0  0  0  0  0  0  0  0  0  0  0
    9.4684   -1.6929   26.7263 F   0  0  0  0  0  0  0  0  0  0  0  0
    7.7963   -7.7906   17.9837 C   0  0  0  0  0  0  0  0  0  0  0  0
   10.5884   -3.0725   16.7902 O   0  0  0  0  0  0  0  0  0  0  0  0
   10.4323   -5.3494   20.3516 C   0  0  0  0  0  0  0  0  0  0  0  0
    7.1156   -7.5454   16.8218 C   0  0  0  0  0  0  0  0  0  0  0  0
   10.3885   -4.4388   19.2773 C   0  0  0  0  0  0  0  0  0  0  0  0
    4.5160   -9.3822   15.0841 C   0  0  0  0  0  0  0  0  0  0  0  0
  1  3  4  0
  1 24  4  0
  2  6  4  0
  2 15  4  0
  3  5  4  0
  3  6  4  0
  4 21  4  0
  4 29  4  0
  5 15  4  0
  5 28  1  0
  6 16  4  0
  7 18  4  0
  7 26  4  0
  8 18  1  0
  8 19  4  0
  8 22  4  0
  9 12  4  0
  9 19  4  0
 10 12  4  0
 10 22  4  0
 11 20  4  0
 11 21  4  0
 12 23  1  0
 13 20  4  0
 13 29  4  0
 14 17  4  0
 14 28  4  0
 15 25  2  0
 16 27  4  0
 17 18  4  0
 20 27  1  0
 24 27  4  0
 26 28  4  0
M  END
$$$$

 Created by Python create_sdf_string function

 29 33  0  0  0  0  0  0  0  0999 V2000
    8.8270   -7.0288   18.4251 C   0  0  0  0  0  0  0  0  0  0  0  0
    9.1576   -4.6236   15.8860 O   0  0  0  0  0  0  0  0  0  0  0  0
    9.1509   -5.9108   17.7177 C   0  0  0  0  0  0  0  0  0  0  0  0
    3.6373   -9.5349   16.0582 N   0  0  0  0  0  0  0  0  0  0  0  0
    9.9275   -4.8001   18.0438 N   0  0  0  0  0  0  0  0  0  0  0  0
    8.5908   -5.7425   16.4412 C   0  0  0  0  0  0  0  0  0  0  0  0
   10.5993   -4.8981   21.6068 C   0  0  0  0  0  0  0  0  0  0  0  0
   10.4258   -3.0106   23.0998 C   0  0  0  0  0  0  0  0  0  0  0  0
   10.2148   -3.4364   25.4200 C   0  0  0  0  0  0  0  0  0  0  0  0
    9.7853   -1.1840   24.4927 C   0  0  0  0  0  0  0  0  0  0  0  0
    5.0276   -8.5227   17.5352 C   0  0  0  0  0  0  0  0  0  0  0  0
    9.8187   -2.0895   25.5800 C   0  0  0  0  0  0  0  0  0  0  0  0
    5.6473   -8.7216   15.3158 C   0  0  0  0  0  0  0  0  0  0  0  0
   10.7581   -3.1233   19.4720 N   0  0  0  0  0  0  0  0  0  0  0  0
    9.9571   -4.0573   16.8866 C   0  0  0  0  0  0  0  0  0  0  0  0
    7.6213   -6.5618   16.0087 C   0  0  0  0  0  0  0  0  0  0  0  0
   10.8583   -2.6527   20.7222 C   0  0  0  0  0  0  0  0  0  0  0  0
   10.6412   -3.5089   21.7936 C   0  0  0  0  0  0  0  0  0  0  0  0
   10.4972   -3.8968   24.1589 C   0  0  0  0  0  0  0  0  0  0  0  0
    5.9260   -8.2736   16.5517 C   0  0  0  0  0  0  0  0  0  0  0  0
    3.8816   -9.1166   17.2493 C   0  0  0  0  0  0  0  0  0  0  0  0
   10.1297   -1.6575   23.2324 C   0  0  0  0  0  0  0  0  0  0  0  0
    9.4684   -1.6929   26.7263 F   0  0  0  0  0  0  0  0  0  0  0  0
    7.7963   -7.7906   17.9837 C   0  0  0  0  0  0  0  0  0  0  0  0
   10.5884   -3.0725   16.7902 O   0  0  0  0  0  0  0  0  0  0  0  0
   10.4323   -5.3494   20.3516 C   0  0  0  0  0  0  0  0  0  0  0  0
    7.1156   -7.5454   16.8218 C   0  0  0  0  0  0  0  0  0  0  0  0
   10.3885   -4.4388   19.2773 C   0  0  0  0  0  0  0  0  0  0  0  0
    4.5160   -9.3822   15.0841 C   0  0  0  0  0  0  0  0  0  0  0  0
  1  3  4  0
  1 24  4  0
  2  6  4  0
  2 15  4  0
  3  5  4  0
  3  6  4  0
  4 21  4  0
  4 29  4  0
  5 15  4  0
  5 28  1  0
  6 16  4  0
  7 18  4  0
  7 26  4  0
  8 18  1  0
  8 19  4  0
  8 22  4  0
  9 12  4  0
  9 19  4  0
 10 12  4  0
 10 22  4  0
 11 20  4  0
 11 21  4  0
 12 23  1  0
 13 20  4  0
 13 29  4  0
 14 17  4  0
 14 28  4  0
 15 25  2  0
 16 27  4  0
 17 18  4  0
 20 27  1  0
 24 27  4  0
 26 28  4  0
M  END
$$$$

 Created by Python create_sdf_string function

 29 33  0  0  0  0  0  0  0  0999 V2000
    8.8270   -7.0288   18.4251 C   0  0  0  0  0  0  0  0  0  0  0  0
    9.1576   -4.6236   15.8860 O   0  0  0  0  0  0  0  0  0  0  0  0
    9.1509   -5.9108   17.7177 C   0  0  0  0  0  0  0  0  0  0  0  0
    3.6373   -9.5349   16.0582 N   0  0  0  0  0  0  0  0  0  0  0  0
    9.9275   -4.8001   18.0438 N   0  0  0  0  0  0  0  0  0  0  0  0
    8.5908   -5.7425   16.4412 C   0  0  0  0  0  0  0  0  0  0  0  0
   10.5993   -4.8981   21.6068 C   0  0  0  0  0  0  0  0  0  0  0  0
   10.4258   -3.0106   23.0998 C   0  0  0  0  0  0  0  0  0  0  0  0
   10.2148   -3.4364   25.4200 C   0  0  0  0  0  0  0  0  0  0  0  0
    9.7853   -1.1840   24.4927 C   0  0  0  0  0  0  0  0  0  0  0  0
    5.0276   -8.5227   17.5352 C   0  0  0  0  0  0  0  0  0  0  0  0
    9.8187   -2.0895   25.5800 C   0  0  0  0  0  0  0  0  0  0  0  0
    5.6473   -8.7216   15.3158 C   0  0  0  0  0  0  0  0  0  0  0  0
   10.7581   -3.1233   19.4720 N   0  0  0  0  0  0  0  0  0  0  0  0
    9.9571   -4.0573   16.8866 C   0  0  0  0  0  0  0  0  0  0  0  0
    7.6213   -6.5618   16.0087 C   0  0  0  0  0  0  0  0  0  0  0  0
   10.8583   -2.6527   20.7222 C   0  0  0  0  0  0  0  0  0  0  0  0
   10.6412   -3.5089   21.7936 C   0  0  0  0  0  0  0  0  0  0  0  0
   10.4972   -3.8968   24.1589 C   0  0  0  0  0  0  0  0  0  0  0  0
    5.9260   -8.2736   16.5517 C   0  0  0  0  0  0  0  0  0  0  0  0
    3.8816   -9.1166   17.2493 C   0  0  0  0  0  0  0  0  0  0  0  0
   10.1297   -1.6575   23.2324 C   0  0  0  0  0  0  0  0  0  0  0  0
    9.4684   -1.6929   26.7263 F   0  0  0  0  0  0  0  0  0  0  0  0
    7.7963   -7.7906   17.9837 C   0  0  0  0  0  0  0  0  0  0  0  0
   10.5884   -3.0725   16.7902 O   0  0  0  0  0  0  0  0  0  0  0  0
   10.4323   -5.3494   20.3516 C   0  0  0  0  0  0  0  0  0  0  0  0
    7.1156   -7.5454   16.8218 C   0  0  0  0  0  0  0  0  0  0  0  0
   10.3885   -4.4388   19.2773 C   0  0  0  0  0  0  0  0  0  0  0  0
    4.5160   -9.3822   15.0841 C   0  0  0  0  0  0  0  0  0  0  0  0
  1  3  4  0
  1 24  4  0
  2  6  4  0
  2 15  4  0
  3  5  4  0
  3  6  4  0
  4 21  4  0
  4 29  4  0
  5 15  4  0
  5 28  1  0
  6 16  4  0
  7 18  4  0
  7 26  4  0
  8 18  1  0
  8 19  4  0
  8 22  4  0
  9 12  4  0
  9 19  4  0
 10 12  4  0
 10 22  4  0
 11 20  4  0
 11 21  4  0
 12 23  1  0
 13 20  4  0
 13 29  4  0
 14 17  4  0
 14 28  4  0
 15 25  2  0
 16 27  4  0
 17 18  4  0
 20 27  1  0
 24 27  4  0
 26 28  4  0
M  END
$$$$

 Created by Python create_sdf_string function

 29 33  0  0  0  0  0  0  0  0999 V2000
    8.8270   -7.0288   18.4251 C   0  0  0  0  0  0  0  0  0  0  0  0
    9.1576   -4.6236   15.8860 O   0  0  0  0  0  0  0  0  0  0  0  0
    9.1509   -5.9108   17.7177 C   0  0  0  0  0  0  0  0  0  0  0  0
    3.6373   -9.5349   16.0582 N   0  0  0  0  0  0  0  0  0  0  0  0
    9.9275   -4.8001   18.0438 N   0  0  0  0  0  0  0  0  0  0  0  0
    8.5908   -5.7425   16.4412 C   0  0  0  0  0  0  0  0  0  0  0  0
   10.5993   -4.8981   21.6068 C   0  0  0  0  0  0  0  0  0  0  0  0
   10.4258   -3.0106   23.0998 C   0  0  0  0  0  0  0  0  0  0  0  0
   10.2148   -3.4364   25.4200 C   0  0  0  0  0  0  0  0  0  0  0  0
    9.7853   -1.1840   24.4927 C   0  0  0  0  0  0  0  0  0  0  0  0
    5.0276   -8.5227   17.5352 C   0  0  0  0  0  0  0  0  0  0  0  0
    9.8187   -2.0895   25.5800 C   0  0  0  0  0  0  0  0  0  0  0  0
    5.6473   -8.7216   15.3158 C   0  0  0  0  0  0  0  0  0  0  0  0
   10.7581   -3.1233   19.4720 N   0  0  0  0  0  0  0  0  0  0  0  0
    9.9571   -4.0573   16.8866 C   0  0  0  0  0  0  0  0  0  0  0  0
    7.6213   -6.5618   16.0087 C   0  0  0  0  0  0  0  0  0  0  0  0
   10.8583   -2.6527   20.7222 C   0  0  0  0  0  0  0  0  0  0  0  0
   10.6412   -3.5089   21.7936 C   0  0  0  0  0  0  0  0  0  0  0  0
   10.4972   -3.8968   24.1589 C   0  0  0  0  0  0  0  0  0  0  0  0
    5.9260   -8.2736   16.5517 C   0  0  0  0  0  0  0  0  0  0  0  0
    3.8816   -9.1166   17.2493 C   0  0  0  0  0  0  0  0  0  0  0  0
   10.1297   -1.6575   23.2324 C   0  0  0  0  0  0  0  0  0  0  0  0
    9.4684   -1.6929   26.7263 F   0  0  0  0  0  0  0  0  0  0  0  0
    7.7963   -7.7906   17.9837 C   0  0  0  0  0  0  0  0  0  0  0  0
   10.5884   -3.0725   16.7902 O   0  0  0  0  0  0  0  0  0  0  0  0
   10.4323   -5.3494   20.3516 C   0  0  0  0  0  0  0  0  0  0  0  0
    7.1156   -7.5454   16.8218 C   0  0  0  0  0  0  0  0  0  0  0  0
   10.3885   -4.4388   19.2773 C   0  0  0  0  0  0  0  0  0  0  0  0
    4.5160   -9.3822   15.0841 C   0  0  0  0  0  0  0  0  0  0  0  0
  1  3  4  0
  1 24  4  0
  2  6  4  0
  2 15  4  0
  3  5  4  0
  3  6  4  0
  4 21  4  0
  4 29  4  0
  5 15  4  0
  5 28  1  0
  6 16  4  0
  7 18  4  0
  7 26  4  0
  8 18  1  0
  8 19  4  0
  8 22  4  0
  9 12  4  0
  9 19  4  0
 10 12  4  0
 10 22  4  0
 11 20  4  0
 11 21  4  0
 12 23  1  0
 13 20  4  0
 13 29  4  0
 14 17  4  0
 14 28  4  0
 15 25  2  0
 16 27  4  0
 17 18  4  0
 20 27  1  0
 24 27  4  0
 26 28  4  0
M  END
$$$$

 Created by Python create_sdf_string function

 29 33  0  0  0  0  0  0  0  0999 V2000
    8.8270   -7.0288   18.4251 C   0  0  0  0  0  0  0  0  0  0  0  0
    9.1576   -4.6236   15.8860 O   0  0  0  0  0  0  0  0  0  0  0  0
    9.1509   -5.9108   17.7177 C   0  0  0  0  0  0  0  0  0  0  0  0
    3.6373   -9.5349   16.0582 N   0  0  0  0  0  0  0  0  0  0  0  0
    9.9275   -4.8001   18.0438 N   0  0  0  0  0  0  0  0  0  0  0  0
    8.5908   -5.7425   16.4412 C   0  0  0  0  0  0  0  0  0  0  0  0
   10.5993   -4.8981   21.6068 C   0  0  0  0  0  0  0  0  0  0  0  0
   10.4258   -3.0106   23.0998 C   0  0  0  0  0  0  0  0  0  0  0  0
   10.2148   -3.4364   25.4200 C   0  0  0  0  0  0  0  0  0  0  0  0
    9.7853   -1.1840   24.4927 C   0  0  0  0  0  0  0  0  0  0  0  0
    5.0276   -8.5227   17.5352 C   0  0  0  0  0  0  0  0  0  0  0  0
    9.8187   -2.0895   25.5800 C   0  0  0  0  0  0  0  0  0  0  0  0
    5.6473   -8.7216   15.3158 C   0  0  0  0  0  0  0  0  0  0  0  0
   10.7581   -3.1233   19.4720 N   0  0  0  0  0  0  0  0  0  0  0  0
    9.9571   -4.0573   16.8866 C   0  0  0  0  0  0  0  0  0  0  0  0
    7.6213   -6.5618   16.0087 C   0  0  0  0  0  0  0  0  0  0  0  0
   10.8583   -2.6527   20.7222 C   0  0  0  0  0  0  0  0  0  0  0  0
   10.6412   -3.5089   21.7936 C   0  0  0  0  0  0  0  0  0  0  0  0
   10.4972   -3.8968   24.1589 C   0  0  0  0  0  0  0  0  0  0  0  0
    5.9260   -8.2736   16.5517 C   0  0  0  0  0  0  0  0  0  0  0  0
    3.8816   -9.1166   17.2493 C   0  0  0  0  0  0  0  0  0  0  0  0
   10.1297   -1.6575   23.2324 C   0  0  0  0  0  0  0  0  0  0  0  0
    9.4684   -1.6929   26.7263 F   0  0  0  0  0  0  0  0  0  0  0  0
    7.7963   -7.7906   17.9837 C   0  0  0  0  0  0  0  0  0  0  0  0
   10.5884   -3.0725   16.7902 O   0  0  0  0  0  0  0  0  0  0  0  0
   10.4323   -5.3494   20.3516 C   0  0  0  0  0  0  0  0  0  0  0  0
    7.1156   -7.5454   16.8218 C   0  0  0  0  0  0  0  0  0  0  0  0
   10.3885   -4.4388   19.2773 C   0  0  0  0  0  0  0  0  0  0  0  0
    4.5160   -9.3822   15.0841 C   0  0  0  0  0  0  0  0  0  0  0  0
  1  3  4  0
  1 24  4  0
  2  6  4  0
  2 15  4  0
  3  5  4  0
  3  6  4  0
  4 21  4  0
  4 29  4  0
  5 15  4  0
  5 28  1  0
  6 16  4  0
  7 18  4  0
  7 26  4  0
  8 18  1  0
  8 19  4  0
  8 22  4  0
  9 12  4  0
  9 19  4  0
 10 12  4  0
 10 22  4  0
 11 20  4  0
 11 21  4  0
 12 23  1  0
 13 20  4  0
 13 29  4  0
 14 17  4  0
 14 28  4  0
 15 25  2  0
 16 27  4  0
 17 18  4  0
 20 27  1  0
 24 27  4  0
 26 28  4  0
M  END
$$$$

 Created by Python create_sdf_string function

 29 33  0  0  0  0  0  0  0  0999 V2000
    8.8270   -7.0288   18.4251 C   0  0  0  0  0  0  0  0  0  0  0  0
    9.1576   -4.6236   15.8860 O   0  0  0  0  0  0  0  0  0  0  0  0
    9.1509   -5.9108   17.7177 C   0  0  0  0  0  0  0  0  0  0  0  0
    3.6373   -9.5349   16.0582 N   0  0  0  0  0  0  0  0  0  0  0  0
    9.9275   -4.8001   18.0438 N   0  0  0  0  0  0  0  0  0  0  0  0
    8.5908   -5.7425   16.4412 C   0  0  0  0  0  0  0  0  0  0  0  0
   10.5993   -4.8981   21.6068 C   0  0  0  0  0  0  0  0  0  0  0  0
   10.4258   -3.0106   23.0998 C   0  0  0  0  0  0  0  0  0  0  0  0
   10.2148   -3.4364   25.4200 C   0  0  0  0  0  0  0  0  0  0  0  0
    9.7853   -1.1840   24.4927 C   0  0  0  0  0  0  0  0  0  0  0  0
    5.0276   -8.5227   17.5352 C   0  0  0  0  0  0  0  0  0  0  0  0
    9.8187   -2.0895   25.5800 C   0  0  0  0  0  0  0  0  0  0  0  0
    5.6473   -8.7216   15.3158 C   0  0  0  0  0  0  0  0  0  0  0  0
   10.7581   -3.1233   19.4720 N   0  0  0  0  0  0  0  0  0  0  0  0
    9.9571   -4.0573   16.8866 C   0  0  0  0  0  0  0  0  0  0  0  0
    7.6213   -6.5618   16.0087 C   0  0  0  0  0  0  0  0  0  0  0  0
   10.8583   -2.6527   20.7222 C   0  0  0  0  0  0  0  0  0  0  0  0
   10.6412   -3.5089   21.7936 C   0  0  0  0  0  0  0  0  0  0  0  0
   10.4972   -3.8968   24.1589 C   0  0  0  0  0  0  0  0  0  0  0  0
    5.9260   -8.2736   16.5517 C   0  0  0  0  0  0  0  0  0  0  0  0
    3.8816   -9.1166   17.2493 C   0  0  0  0  0  0  0  0  0  0  0  0
   10.1297   -1.6575   23.2324 C   0  0  0  0  0  0  0  0  0  0  0  0
    9.4684   -1.6929   26.7263 F   0  0  0  0  0  0  0  0  0  0  0  0
    7.7963   -7.7906   17.9837 C   0  0  0  0  0  0  0  0  0  0  0  0
   10.5884   -3.0725   16.7902 O   0  0  0  0  0  0  0  0  0  0  0  0
   10.4323   -5.3494   20.3516 C   0  0  0  0  0  0  0  0  0  0  0  0
    7.1156   -7.5454   16.8218 C   0  0  0  0  0  0  0  0  0  0  0  0
   10.3885   -4.4388   19.2773 C   0  0  0  0  0  0  0  0  0  0  0  0
    4.5160   -9.3822   15.0841 C   0  0  0  0  0  0  0  0  0  0  0  0
  1  3  4  0
  1 24  4  0
  2  6  4  0
  2 15  4  0
  3  5  4  0
  3  6  4  0
  4 21  4  0
  4 29  4  0
  5 15  4  0
  5 28  1  0
  6 16  4  0
  7 18  4  0
  7 26  4  0
  8 18  1  0
  8 19  4  0
  8 22  4  0
  9 12  4  0
  9 19  4  0
 10 12  4  0
 10 22  4  0
 11 20  4  0
 11 21  4  0
 12 23  1  0
 13 20  4  0
 13 29  4  0
 14 17  4  0
 14 28  4  0
 15 25  2  0
 16 27  4  0
 17 18  4  0
 20 27  1  0
 24 27  4  0
 26 28  4  0
M  END
$$$$

 Created by Python create_sdf_string function

 29 33  0  0  0  0  0  0  0  0999 V2000
    8.8270   -7.0288   18.4251 C   0  0  0  0  0  0  0  0  0  0  0  0
    9.1576   -4.6236   15.8860 O   0  0  0  0  0  0  0  0  0  0  0  0
    9.1509   -5.9108   17.7177 C   0  0  0  0  0  0  0  0  0  0  0  0
    3.6373   -9.5349   16.0582 N   0  0  0  0  0  0  0  0  0  0  0  0
    9.9275   -4.8001   18.0438 N   0  0  0  0  0  0  0  0  0  0  0  0
    8.5908   -5.7425   16.4412 C   0  0  0  0  0  0  0  0  0  0  0  0
   10.5993   -4.8981   21.6068 C   0  0  0  0  0  0  0  0  0  0  0  0
   10.4258   -3.0106   23.0998 C   0  0  0  0  0  0  0  0  0  0  0  0
   10.2148   -3.4364   25.4200 C   0  0  0  0  0  0  0  0  0  0  0  0
    9.7853   -1.1840   24.4927 C   0  0  0  0  0  0  0  0  0  0  0  0
    5.0276   -8.5227   17.5352 C   0  0  0  0  0  0  0  0  0  0  0  0
    9.8187   -2.0895   25.5800 C   0  0  0  0  0  0  0  0  0  0  0  0
    5.6473   -8.7216   15.3158 C   0  0  0  0  0  0  0  0  0  0  0  0
   10.7581   -3.1233   19.4720 N   0  0  0  0  0  0  0  0  0  0  0  0
    9.9571   -4.0573   16.8866 C   0  0  0  0  0  0  0  0  0  0  0  0
    7.6213   -6.5618   16.0087 C   0  0  0  0  0  0  0  0  0  0  0  0
   10.8583   -2.6527   20.7222 C   0  0  0  0  0  0  0  0  0  0  0  0
   10.6412   -3.5089   21.7936 C   0  0  0  0  0  0  0  0  0  0  0  0
   10.4972   -3.8968   24.1589 C   0  0  0  0  0  0  0  0  0  0  0  0
    5.9260   -8.2736   16.5517 C   0  0  0  0  0  0  0  0  0  0  0  0
    3.8816   -9.1166   17.2493 C   0  0  0  0  0  0  0  0  0  0  0  0
   10.1297   -1.6575   23.2324 C   0  0  0  0  0  0  0  0  0  0  0  0
    9.4684   -1.6929   26.7263 F   0  0  0  0  0  0  0  0  0  0  0  0
    7.7963   -7.7906   17.9837 C   0  0  0  0  0  0  0  0  0  0  0  0
   10.5884   -3.0725   16.7902 O   0  0  0  0  0  0  0  0  0  0  0  0
   10.4323   -5.3494   20.3516 C   0  0  0  0  0  0  0  0  0  0  0  0
    7.1156   -7.5454   16.8218 C   0  0  0  0  0  0  0  0  0  0  0  0
   10.3885   -4.4388   19.2773 C   0  0  0  0  0  0  0  0  0  0  0  0
    4.5160   -9.3822   15.0841 C   0  0  0  0  0  0  0  0  0  0  0  0
  1  3  4  0
  1 24  4  0
  2  6  4  0
  2 15  4  0
  3  5  4  0
  3  6  4  0
  4 21  4  0
  4 29  4  0
  5 15  4  0
  5 28  1  0
  6 16  4  0
  7 18  4  0
  7 26  4  0
  8 18  1  0
  8 19  4  0
  8 22  4  0
  9 12  4  0
  9 19  4  0
 10 12  4  0
 10 22  4  0
 11 20  4  0
 11 21  4  0
 12 23  1  0
 13 20  4  0
 13 29  4  0
 14 17  4  0
 14 28  4  0
 15 25  2  0
 16 27  4  0
 17 18  4  0
 20 27  1  0
 24 27  4  0
 26 28  4  0
M  END
$$$$

 Created by Python create_sdf_string function

 29 33  0  0  0  0  0  0  0  0999 V2000
    8.8270   -7.0288   18.4251 C   0  0  0  0  0  0  0  0  0  0  0  0
    9.1576   -4.6236   15.8860 O   0  0  0  0  0  0  0  0  0  0  0  0
    9.1509   -5.9108   17.7177 C   0  0  0  0  0  0  0  0  0  0  0  0
    3.6373   -9.5349   16.0582 N   0  0  0  0  0  0  0  0  0  0  0  0
    9.9275   -4.8001   18.0438 N   0  0  0  0  0  0  0  0  0  0  0  0
    8.5908   -5.7425   16.4412 C   0  0  0  0  0  0  0  0  0  0  0  0
   10.5993   -4.8981   21.6068 C   0  0  0  0  0  0  0  0  0  0  0  0
   10.4258   -3.0106   23.0998 C   0  0  0  0  0  0  0  0  0  0  0  0
   10.2148   -3.4364   25.4200 C   0  0  0  0  0  0  0  0  0  0  0  0
    9.7853   -1.1840   24.4927 C   0  0  0  0  0  0  0  0  0  0  0  0
    5.0276   -8.5227   17.5352 C   0  0  0  0  0  0  0  0  0  0  0  0
    9.8187   -2.0895   25.5800 C   0  0  0  0  0  0  0  0  0  0  0  0
    5.6473   -8.7216   15.3158 C   0  0  0  0  0  0  0  0  0  0  0  0
   10.7581   -3.1233   19.4720 N   0  0  0  0  0  0  0  0  0  0  0  0
    9.9571   -4.0573   16.8866 C   0  0  0  0  0  0  0  0  0  0  0  0
    7.6213   -6.5618   16.0087 C   0  0  0  0  0  0  0  0  0  0  0  0
   10.8583   -2.6527   20.7222 C   0  0  0  0  0  0  0  0  0  0  0  0
   10.6412   -3.5089   21.7936 C   0  0  0  0  0  0  0  0  0  0  0  0
   10.4972   -3.8968   24.1589 C   0  0  0  0  0  0  0  0  0  0  0  0
    5.9260   -8.2736   16.5517 C   0  0  0  0  0  0  0  0  0  0  0  0
    3.8816   -9.1166   17.2493 C   0  0  0  0  0  0  0  0  0  0  0  0
   10.1297   -1.6575   23.2324 C   0  0  0  0  0  0  0  0  0  0  0  0
    9.4684   -1.6929   26.7263 F   0  0  0  0  0  0  0  0  0  0  0  0
    7.7963   -7.7906   17.9837 C   0  0  0  0  0  0  0  0  0  0  0  0
   10.5884   -3.0725   16.7902 O   0  0  0  0  0  0  0  0  0  0  0  0
   10.4323   -5.3494   20.3516 C   0  0  0  0  0  0  0  0  0  0  0  0
    7.1156   -7.5454   16.8218 C   0  0  0  0  0  0  0  0  0  0  0  0
   10.3885   -4.4388   19.2773 C   0  0  0  0  0  0  0  0  0  0  0  0
    4.5160   -9.3822   15.0841 C   0  0  0  0  0  0  0  0  0  0  0  0
  1  3  4  0
  1 24  4  0
  2  6  4  0
  2 15  4  0
  3  5  4  0
  3  6  4  0
  4 21  4  0
  4 29  4  0
  5 15  4  0
  5 28  1  0
  6 16  4  0
  7 18  4  0
  7 26  4  0
  8 18  1  0
  8 19  4  0
  8 22  4  0
  9 12  4  0
  9 19  4  0
 10 12  4  0
 10 22  4  0
 11 20  4  0
 11 21  4  0
 12 23  1  0
 13 20  4  0
 13 29  4  0
 14 17  4  0
 14 28  4  0
 15 25  2  0
 16 27  4  0
 17 18  4  0
 20 27  1  0
 24 27  4  0
 26 28  4  0
M  END
$$$$

 Created by Python create_sdf_string function

 29 33  0  0  0  0  0  0  0  0999 V2000
    8.8270   -7.0288   18.4251 C   0  0  0  0  0  0  0  0  0  0  0  0
    9.1576   -4.6236   15.8860 O   0  0  0  0  0  0  0  0  0  0  0  0
    9.1509   -5.9108   17.7177 C   0  0  0  0  0  0  0  0  0  0  0  0
    3.6373   -9.5349   16.0582 N   0  0  0  0  0  0  0  0  0  0  0  0
    9.9275   -4.8001   18.0438 N   0  0  0  0  0  0  0  0  0  0  0  0
    8.5908   -5.7425   16.4412 C   0  0  0  0  0  0  0  0  0  0  0  0
   10.5993   -4.8981   21.6068 C   0  0  0  0  0  0  0  0  0  0  0  0
   10.4258   -3.0106   23.0998 C   0  0  0  0  0  0  0  0  0  0  0  0
   10.2148   -3.4364   25.4200 C   0  0  0  0  0  0  0  0  0  0  0  0
    9.7853   -1.1840   24.4927 C   0  0  0  0  0  0  0  0  0  0  0  0
    5.0276   -8.5227   17.5352 C   0  0  0  0  0  0  0  0  0  0  0  0
    9.8187   -2.0895   25.5800 C   0  0  0  0  0  0  0  0  0  0  0  0
    5.6473   -8.7216   15.3158 C   0  0  0  0  0  0  0  0  0  0  0  0
   10.7581   -3.1233   19.4720 N   0  0  0  0  0  0  0  0  0  0  0  0
    9.9571   -4.0573   16.8866 C   0  0  0  0  0  0  0  0  0  0  0  0
    7.6213   -6.5618   16.0087 C   0  0  0  0  0  0  0  0  0  0  0  0
   10.8583   -2.6527   20.7222 C   0  0  0  0  0  0  0  0  0  0  0  0
   10.6412   -3.5089   21.7936 C   0  0  0  0  0  0  0  0  0  0  0  0
   10.4972   -3.8968   24.1589 C   0  0  0  0  0  0  0  0  0  0  0  0
    5.9260   -8.2736   16.5517 C   0  0  0  0  0  0  0  0  0  0  0  0
    3.8816   -9.1166   17.2493 C   0  0  0  0  0  0  0  0  0  0  0  0
   10.1297   -1.6575   23.2324 C   0  0  0  0  0  0  0  0  0  0  0  0
    9.4684   -1.6929   26.7263 F   0  0  0  0  0  0  0  0  0  0  0  0
    7.7963   -7.7906   17.9837 C   0  0  0  0  0  0  0  0  0  0  0  0
   10.5884   -3.0725   16.7902 O   0  0  0  0  0  0  0  0  0  0  0  0
   10.4323   -5.3494   20.3516 C   0  0  0  0  0  0  0  0  0  0  0  0
    7.1156   -7.5454   16.8218 C   0  0  0  0  0  0  0  0  0  0  0  0
   10.3885   -4.4388   19.2773 C   0  0  0  0  0  0  0  0  0  0  0  0
    4.5160   -9.3822   15.0841 C   0  0  0  0  0  0  0  0  0  0  0  0
  1  3  4  0
  1 24  4  0
  2  6  4  0
  2 15  4  0
  3  5  4  0
  3  6  4  0
  4 21  4  0
  4 29  4  0
  5 15  4  0
  5 28  1  0
  6 16  4  0
  7 18  4  0
  7 26  4  0
  8 18  1  0
  8 19  4  0
  8 22  4  0
  9 12  4  0
  9 19  4  0
 10 12  4  0
 10 22  4  0
 11 20  4  0
 11 21  4  0
 12 23  1  0
 13 20  4  0
 13 29  4  0
 14 17  4  0
 14 28  4  0
 15 25  2  0
 16 27  4  0
 17 18  4  0
 20 27  1  0
 24 27  4  0
 26 28  4  0
M  END
$$$$

 Created by Python create_sdf_string function

 29 33  0  0  0  0  0  0  0  0999 V2000
    8.8270   -7.0288   18.4251 C   0  0  0  0  0  0  0  0  0  0  0  0
    9.1576   -4.6236   15.8860 O   0  0  0  0  0  0  0  0  0  0  0  0
    9.1509   -5.9108   17.7177 C   0  0  0  0  0  0  0  0  0  0  0  0
    3.6373   -9.5349   16.0582 N   0  0  0  0  0  0  0  0  0  0  0  0
    9.9275   -4.8001   18.0438 N   0  0  0  0  0  0  0  0  0  0  0  0
    8.5908   -5.7425   16.4412 C   0  0  0  0  0  0  0  0  0  0  0  0
   10.5993   -4.8981   21.6068 C   0  0  0  0  0  0  0  0  0  0  0  0
   10.4258   -3.0106   23.0998 C   0  0  0  0  0  0  0  0  0  0  0  0
   10.2148   -3.4364   25.4200 C   0  0  0  0  0  0  0  0  0  0  0  0
    9.7853   -1.1840   24.4927 C   0  0  0  0  0  0  0  0  0  0  0  0
    5.0276   -8.5227   17.5352 C   0  0  0  0  0  0  0  0  0  0  0  0
    9.8187   -2.0895   25.5800 C   0  0  0  0  0  0  0  0  0  0  0  0
    5.6473   -8.7216   15.3158 C   0  0  0  0  0  0  0  0  0  0  0  0
   10.7581   -3.1233   19.4720 N   0  0  0  0  0  0  0  0  0  0  0  0
    9.9571   -4.0573   16.8866 C   0  0  0  0  0  0  0  0  0  0  0  0
    7.6213   -6.5618   16.0087 C   0  0  0  0  0  0  0  0  0  0  0  0
   10.8583   -2.6527   20.7222 C   0  0  0  0  0  0  0  0  0  0  0  0
   10.6412   -3.5089   21.7936 C   0  0  0  0  0  0  0  0  0  0  0  0
   10.4972   -3.8968   24.1589 C   0  0  0  0  0  0  0  0  0  0  0  0
    5.9260   -8.2736   16.5517 C   0  0  0  0  0  0  0  0  0  0  0  0
    3.8816   -9.1166   17.2493 C   0  0  0  0  0  0  0  0  0  0  0  0
   10.1297   -1.6575   23.2324 C   0  0  0  0  0  0  0  0  0  0  0  0
    9.4684   -1.6929   26.7263 F   0  0  0  0  0  0  0  0  0  0  0  0
    7.7963   -7.7906   17.9837 C   0  0  0  0  0  0  0  0  0  0  0  0
   10.5884   -3.0725   16.7902 O   0  0  0  0  0  0  0  0  0  0  0  0
   10.4323   -5.3494   20.3516 C   0  0  0  0  0  0  0  0  0  0  0  0
    7.1156   -7.5454   16.8218 C   0  0  0  0  0  0  0  0  0  0  0  0
   10.3885   -4.4388   19.2773 C   0  0  0  0  0  0  0  0  0  0  0  0
    4.5160   -9.3822   15.0841 C   0  0  0  0  0  0  0  0  0  0  0  0
  1  3  4  0
  1 24  4  0
  2  6  4  0
  2 15  4  0
  3  5  4  0
  3  6  4  0
  4 21  4  0
  4 29  4  0
  5 15  4  0
  5 28  1  0
  6 16  4  0
  7 18  4  0
  7 26  4  0
  8 18  1  0
  8 19  4  0
  8 22  4  0
  9 12  4  0
  9 19  4  0
 10 12  4  0
 10 22  4  0
 11 20  4  0
 11 21  4  0
 12 23  1  0
 13 20  4  0
 13 29  4  0
 14 17  4  0
 14 28  4  0
 15 25  2  0
 16 27  4  0
 17 18  4  0
 20 27  1  0
 24 27  4  0
 26 28  4  0
M  END
$$$$

 Created by Python create_sdf_string function

 29 33  0  0  0  0  0  0  0  0999 V2000
    8.8270   -7.0288   18.4251 C   0  0  0  0  0  0  0  0  0  0  0  0
    9.1576   -4.6236   15.8860 O   0  0  0  0  0  0  0  0  0  0  0  0
    9.1509   -5.9108   17.7177 C   0  0  0  0  0  0  0  0  0  0  0  0
    3.6373   -9.5349   16.0582 N   0  0  0  0  0  0  0  0  0  0  0  0
    9.9275   -4.8001   18.0438 N   0  0  0  0  0  0  0  0  0  0  0  0
    8.5908   -5.7425   16.4412 C   0  0  0  0  0  0  0  0  0  0  0  0
   10.5993   -4.8981   21.6068 C   0  0  0  0  0  0  0  0  0  0  0  0
   10.4258   -3.0106   23.0998 C   0  0  0  0  0  0  0  0  0  0  0  0
   10.2148   -3.4364   25.4200 C   0  0  0  0  0  0  0  0  0  0  0  0
    9.7853   -1.1840   24.4927 C   0  0  0  0  0  0  0  0  0  0  0  0
    5.0276   -8.5227   17.5352 C   0  0  0  0  0  0  0  0  0  0  0  0
    9.8187   -2.0895   25.5800 C   0  0  0  0  0  0  0  0  0  0  0  0
    5.6473   -8.7216   15.3158 C   0  0  0  0  0  0  0  0  0  0  0  0
   10.7581   -3.1233   19.4720 N   0  0  0  0  0  0  0  0  0  0  0  0
    9.9571   -4.0573   16.8866 C   0  0  0  0  0  0  0  0  0  0  0  0
    7.6213   -6.5618   16.0087 C   0  0  0  0  0  0  0  0  0  0  0  0
   10.8583   -2.6527   20.7222 C   0  0  0  0  0  0  0  0  0  0  0  0
   10.6412   -3.5089   21.7936 C   0  0  0  0  0  0  0  0  0  0  0  0
   10.4972   -3.8968   24.1589 C   0  0  0  0  0  0  0  0  0  0  0  0
    5.9260   -8.2736   16.5517 C   0  0  0  0  0  0  0  0  0  0  0  0
    3.8816   -9.1166   17.2493 C   0  0  0  0  0  0  0  0  0  0  0  0
   10.1297   -1.6575   23.2324 C   0  0  0  0  0  0  0  0  0  0  0  0
    9.4684   -1.6929   26.7263 F   0  0  0  0  0  0  0  0  0  0  0  0
    7.7963   -7.7906   17.9837 C   0  0  0  0  0  0  0  0  0  0  0  0
   10.5884   -3.0725   16.7902 O   0  0  0  0  0  0  0  0  0  0  0  0
   10.4323   -5.3494   20.3516 C   0  0  0  0  0  0  0  0  0  0  0  0
    7.1156   -7.5454   16.8218 C   0  0  0  0  0  0  0  0  0  0  0  0
   10.3885   -4.4388   19.2773 C   0  0  0  0  0  0  0  0  0  0  0  0
    4.5160   -9.3822   15.0841 C   0  0  0  0  0  0  0  0  0  0  0  0
  1  3  4  0
  1 24  4  0
  2  6  4  0
  2 15  4  0
  3  5  4  0
  3  6  4  0
  4 21  4  0
  4 29  4  0
  5 15  4  0
  5 28  1  0
  6 16  4  0
  7 18  4  0
  7 26  4  0
  8 18  1  0
  8 19  4  0
  8 22  4  0
  9 12  4  0
  9 19  4  0
 10 12  4  0
 10 22  4  0
 11 20  4  0
 11 21  4  0
 12 23  1  0
 13 20  4  0
 13 29  4  0
 14 17  4  0
 14 28  4  0
 15 25  2  0
 16 27  4  0
 17 18  4  0
 20 27  1  0
 24 27  4  0
 26 28  4  0
M  END
$$$$

 Created by Python create_sdf_string function

 29 33  0  0  0  0  0  0  0  0999 V2000
    8.8270   -7.0288   18.4251 C   0  0  0  0  0  0  0  0  0  0  0  0
    9.1576   -4.6236   15.8860 O   0  0  0  0  0  0  0  0  0  0  0  0
    9.1509   -5.9108   17.7177 C   0  0  0  0  0  0  0  0  0  0  0  0
    3.6373   -9.5349   16.0582 N   0  0  0  0  0  0  0  0  0  0  0  0
    9.9275   -4.8001   18.0438 N   0  0  0  0  0  0  0  0  0  0  0  0
    8.5908   -5.7425   16.4412 C   0  0  0  0  0  0  0  0  0  0  0  0
   10.5993   -4.8981   21.6068 C   0  0  0  0  0  0  0  0  0  0  0  0
   10.4258   -3.0106   23.0998 C   0  0  0  0  0  0  0  0  0  0  0  0
   10.2148   -3.4364   25.4200 C   0  0  0  0  0  0  0  0  0  0  0  0
    9.7853   -1.1840   24.4927 C   0  0  0  0  0  0  0  0  0  0  0  0
    5.0276   -8.5227   17.5352 C   0  0  0  0  0  0  0  0  0  0  0  0
    9.8187   -2.0895   25.5800 C   0  0  0  0  0  0  0  0  0  0  0  0
    5.6473   -8.7216   15.3158 C   0  0  0  0  0  0  0  0  0  0  0  0
   10.7581   -3.1233   19.4720 N   0  0  0  0  0  0  0  0  0  0  0  0
    9.9571   -4.0573   16.8866 C   0  0  0  0  0  0  0  0  0  0  0  0
    7.6213   -6.5618   16.0087 C   0  0  0  0  0  0  0  0  0  0  0  0
   10.8583   -2.6527   20.7222 C   0  0  0  0  0  0  0  0  0  0  0  0
   10.6412   -3.5089   21.7936 C   0  0  0  0  0  0  0  0  0  0  0  0
   10.4972   -3.8968   24.1589 C   0  0  0  0  0  0  0  0  0  0  0  0
    5.9260   -8.2736   16.5517 C   0  0  0  0  0  0  0  0  0  0  0  0
    3.8816   -9.1166   17.2493 C   0  0  0  0  0  0  0  0  0  0  0  0
   10.1297   -1.6575   23.2324 C   0  0  0  0  0  0  0  0  0  0  0  0
    9.4684   -1.6929   26.7263 F   0  0  0  0  0  0  0  0  0  0  0  0
    7.7963   -7.7906   17.9837 C   0  0  0  0  0  0  0  0  0  0  0  0
   10.5884   -3.0725   16.7902 O   0  0  0  0  0  0  0  0  0  0  0  0
   10.4323   -5.3494   20.3516 C   0  0  0  0  0  0  0  0  0  0  0  0
    7.1156   -7.5454   16.8218 C   0  0  0  0  0  0  0  0  0  0  0  0
   10.3885   -4.4388   19.2773 C   0  0  0  0  0  0  0  0  0  0  0  0
    4.5160   -9.3822   15.0841 C   0  0  0  0  0  0  0  0  0  0  0  0
  1  3  4  0
  1 24  4  0
  2  6  4  0
  2 15  4  0
  3  5  4  0
  3  6  4  0
  4 21  4  0
  4 29  4  0
  5 15  4  0
  5 28  1  0
  6 16  4  0
  7 18  4  0
  7 26  4  0
  8 18  1  0
  8 19  4  0
  8 22  4  0
  9 12  4  0
  9 19  4  0
 10 12  4  0
 10 22  4  0
 11 20  4  0
 11 21  4  0
 12 23  1  0
 13 20  4  0
 13 29  4  0
 14 17  4  0
 14 28  4  0
 15 25  2  0
 16 27  4  0
 17 18  4  0
 20 27  1  0
 24 27  4  0
 26 28  4  0
M  END
$$$$

 Created by Python create_sdf_string function

 29 33  0  0  0  0  0  0  0  0999 V2000
    8.8270   -7.0288   18.4251 C   0  0  0  0  0  0  0  0  0  0  0  0
    9.1576   -4.6236   15.8860 O   0  0  0  0  0  0  0  0  0  0  0  0
    9.1509   -5.9108   17.7177 C   0  0  0  0  0  0  0  0  0  0  0  0
    3.6373   -9.5349   16.0582 N   0  0  0  0  0  0  0  0  0  0  0  0
    9.9275   -4.8001   18.0438 N   0  0  0  0  0  0  0  0  0  0  0  0
    8.5908   -5.7425   16.4412 C   0  0  0  0  0  0  0  0  0  0  0  0
   10.5993   -4.8981   21.6068 C   0  0  0  0  0  0  0  0  0  0  0  0
   10.4258   -3.0106   23.0998 C   0  0  0  0  0  0  0  0  0  0  0  0
   10.2148   -3.4364   25.4200 C   0  0  0  0  0  0  0  0  0  0  0  0
    9.7853   -1.1840   24.4927 C   0  0  0  0  0  0  0  0  0  0  0  0
    5.0276   -8.5227   17.5352 C   0  0  0  0  0  0  0  0  0  0  0  0
    9.8187   -2.0895   25.5800 C   0  0  0  0  0  0  0  0  0  0  0  0
    5.6473   -8.7216   15.3158 C   0  0  0  0  0  0  0  0  0  0  0  0
   10.7581   -3.1233   19.4720 N   0  0  0  0  0  0  0  0  0  0  0  0
    9.9571   -4.0573   16.8866 C   0  0  0  0  0  0  0  0  0  0  0  0
    7.6213   -6.5618   16.0087 C   0  0  0  0  0  0  0  0  0  0  0  0
   10.8583   -2.6527   20.7222 C   0  0  0  0  0  0  0  0  0  0  0  0
   10.6412   -3.5089   21.7936 C   0  0  0  0  0  0  0  0  0  0  0  0
   10.4972   -3.8968   24.1589 C   0  0  0  0  0  0  0  0  0  0  0  0
    5.9260   -8.2736   16.5517 C   0  0  0  0  0  0  0  0  0  0  0  0
    3.8816   -9.1166   17.2493 C   0  0  0  0  0  0  0  0  0  0  0  0
   10.1297   -1.6575   23.2324 C   0  0  0  0  0  0  0  0  0  0  0  0
    9.4684   -1.6929   26.7263 F   0  0  0  0  0  0  0  0  0  0  0  0
    7.7963   -7.7906   17.9837 C   0  0  0  0  0  0  0  0  0  0  0  0
   10.5884   -3.0725   16.7902 O   0  0  0  0  0  0  0  0  0  0  0  0
   10.4323   -5.3494   20.3516 C   0  0  0  0  0  0  0  0  0  0  0  0
    7.1156   -7.5454   16.8218 C   0  0  0  0  0  0  0  0  0  0  0  0
   10.3885   -4.4388   19.2773 C   0  0  0  0  0  0  0  0  0  0  0  0
    4.5160   -9.3822   15.0841 C   0  0  0  0  0  0  0  0  0  0  0  0
  1  3  4  0
  1 24  4  0
  2  6  4  0
  2 15  4  0
  3  5  4  0
  3  6  4  0
  4 21  4  0
  4 29  4  0
  5 15  4  0
  5 28  1  0
  6 16  4  0
  7 18  4  0
  7 26  4  0
  8 18  1  0
  8 19  4  0
  8 22  4  0
  9 12  4  0
  9 19  4  0
 10 12  4  0
 10 22  4  0
 11 20  4  0
 11 21  4  0
 12 23  1  0
 13 20  4  0
 13 29  4  0
 14 17  4  0
 14 28  4  0
 15 25  2  0
 16 27  4  0
 17 18  4  0
 20 27  1  0
 24 27  4  0
 26 28  4  0
M  END
$$$$

 Created by Python create_sdf_string function

 29 33  0  0  0  0  0  0  0  0999 V2000
    8.8270   -7.0288   18.4251 C   0  0  0  0  0  0  0  0  0  0  0  0
    9.1576   -4.6236   15.8860 O   0  0  0  0  0  0  0  0  0  0  0  0
    9.1509   -5.9108   17.7177 C   0  0  0  0  0  0  0  0  0  0  0  0
    3.6373   -9.5349   16.0582 N   0  0  0  0  0  0  0  0  0  0  0  0
    9.9275   -4.8001   18.0438 N   0  0  0  0  0  0  0  0  0  0  0  0
    8.5908   -5.7425   16.4412 C   0  0  0  0  0  0  0  0  0  0  0  0
   10.5993   -4.8981   21.6068 C   0  0  0  0  0  0  0  0  0  0  0  0
   10.4258   -3.0106   23.0998 C   0  0  0  0  0  0  0  0  0  0  0  0
   10.2148   -3.4364   25.4200 C   0  0  0  0  0  0  0  0  0  0  0  0
    9.7853   -1.1840   24.4927 C   0  0  0  0  0  0  0  0  0  0  0  0
    5.0276   -8.5227   17.5352 C   0  0  0  0  0  0  0  0  0  0  0  0
    9.8187   -2.0895   25.5800 C   0  0  0  0  0  0  0  0  0  0  0  0
    5.6473   -8.7216   15.3158 C   0  0  0  0  0  0  0  0  0  0  0  0
   10.7581   -3.1233   19.4720 N   0  0  0  0  0  0  0  0  0  0  0  0
    9.9571   -4.0573   16.8866 C   0  0  0  0  0  0  0  0  0  0  0  0
    7.6213   -6.5618   16.0087 C   0  0  0  0  0  0  0  0  0  0  0  0
   10.8583   -2.6527   20.7222 C   0  0  0  0  0  0  0  0  0  0  0  0
   10.6412   -3.5089   21.7936 C   0  0  0  0  0  0  0  0  0  0  0  0
   10.4972   -3.8968   24.1589 C   0  0  0  0  0  0  0  0  0  0  0  0
    5.9260   -8.2736   16.5517 C   0  0  0  0  0  0  0  0  0  0  0  0
    3.8816   -9.1166   17.2493 C   0  0  0  0  0  0  0  0  0  0  0  0
   10.1297   -1.6575   23.2324 C   0  0  0  0  0  0  0  0  0  0  0  0
    9.4684   -1.6929   26.7263 F   0  0  0  0  0  0  0  0  0  0  0  0
    7.7963   -7.7906   17.9837 C   0  0  0  0  0  0  0  0  0  0  0  0
   10.5884   -3.0725   16.7902 O   0  0  0  0  0  0  0  0  0  0  0  0
   10.4323   -5.3494   20.3516 C   0  0  0  0  0  0  0  0  0  0  0  0
    7.1156   -7.5454   16.8218 C   0  0  0  0  0  0  0  0  0  0  0  0
   10.3885   -4.4388   19.2773 C   0  0  0  0  0  0  0  0  0  0  0  0
    4.5160   -9.3822   15.0841 C   0  0  0  0  0  0  0  0  0  0  0  0
  1  3  4  0
  1 24  4  0
  2  6  4  0
  2 15  4  0
  3  5  4  0
  3  6  4  0
  4 21  4  0
  4 29  4  0
  5 15  4  0
  5 28  1  0
  6 16  4  0
  7 18  4  0
  7 26  4  0
  8 18  1  0
  8 19  4  0
  8 22  4  0
  9 12  4  0
  9 19  4  0
 10 12  4  0
 10 22  4  0
 11 20  4  0
 11 21  4  0
 12 23  1  0
 13 20  4  0
 13 29  4  0
 14 17  4  0
 14 28  4  0
 15 25  2  0
 16 27  4  0
 17 18  4  0
 20 27  1  0
 24 27  4  0
 26 28  4  0
M  END
$$$$

 Created by Python create_sdf_string function

 29 33  0  0  0  0  0  0  0  0999 V2000
    8.8270   -7.0288   18.4251 C   0  0  0  0  0  0  0  0  0  0  0  0
    9.1576   -4.6236   15.8860 O   0  0  0  0  0  0  0  0  0  0  0  0
    9.1509   -5.9108   17.7177 C   0  0  0  0  0  0  0  0  0  0  0  0
    3.6373   -9.5349   16.0582 N   0  0  0  0  0  0  0  0  0  0  0  0
    9.9275   -4.8001   18.0438 N   0  0  0  0  0  0  0  0  0  0  0  0
    8.5908   -5.7425   16.4412 C   0  0  0  0  0  0  0  0  0  0  0  0
   10.5993   -4.8981   21.6068 C   0  0  0  0  0  0  0  0  0  0  0  0
   10.4258   -3.0106   23.0998 C   0  0  0  0  0  0  0  0  0  0  0  0
   10.2148   -3.4364   25.4200 C   0  0  0  0  0  0  0  0  0  0  0  0
    9.7853   -1.1840   24.4927 C   0  0  0  0  0  0  0  0  0  0  0  0
    5.0276   -8.5227   17.5352 C   0  0  0  0  0  0  0  0  0  0  0  0
    9.8187   -2.0895   25.5800 C   0  0  0  0  0  0  0  0  0  0  0  0
    5.6473   -8.7216   15.3158 C   0  0  0  0  0  0  0  0  0  0  0  0
   10.7581   -3.1233   19.4720 N   0  0  0  0  0  0  0  0  0  0  0  0
    9.9571   -4.0573   16.8866 C   0  0  0  0  0  0  0  0  0  0  0  0
    7.6213   -6.5618   16.0087 C   0  0  0  0  0  0  0  0  0  0  0  0
   10.8583   -2.6527   20.7222 C   0  0  0  0  0  0  0  0  0  0  0  0
   10.6412   -3.5089   21.7936 C   0  0  0  0  0  0  0  0  0  0  0  0
   10.4972   -3.8968   24.1589 C   0  0  0  0  0  0  0  0  0  0  0  0
    5.9260   -8.2736   16.5517 C   0  0  0  0  0  0  0  0  0  0  0  0
    3.8816   -9.1166   17.2493 C   0  0  0  0  0  0  0  0  0  0  0  0
   10.1297   -1.6575   23.2324 C   0  0  0  0  0  0  0  0  0  0  0  0
    9.4684   -1.6929   26.7263 F   0  0  0  0  0  0  0  0  0  0  0  0
    7.7963   -7.7906   17.9837 C   0  0  0  0  0  0  0  0  0  0  0  0
   10.5884   -3.0725   16.7902 O   0  0  0  0  0  0  0  0  0  0  0  0
   10.4323   -5.3494   20.3516 C   0  0  0  0  0  0  0  0  0  0  0  0
    7.1156   -7.5454   16.8218 C   0  0  0  0  0  0  0  0  0  0  0  0
   10.3885   -4.4388   19.2773 C   0  0  0  0  0  0  0  0  0  0  0  0
    4.5160   -9.3822   15.0841 C   0  0  0  0  0  0  0  0  0  0  0  0
  1  3  4  0
  1 24  4  0
  2  6  4  0
  2 15  4  0
  3  5  4  0
  3  6  4  0
  4 21  4  0
  4 29  4  0
  5 15  4  0
  5 28  1  0
  6 16  4  0
  7 18  4  0
  7 26  4  0
  8 18  1  0
  8 19  4  0
  8 22  4  0
  9 12  4  0
  9 19  4  0
 10 12  4  0
 10 22  4  0
 11 20  4  0
 11 21  4  0
 12 23  1  0
 13 20  4  0
 13 29  4  0
 14 17  4  0
 14 28  4  0
 15 25  2  0
 16 27  4  0
 17 18  4  0
 20 27  1  0
 24 27  4  0
 26 28  4  0
M  END
$$$$

 Created by Python create_sdf_string function

 29 33  0  0  0  0  0  0  0  0999 V2000
    8.8270   -7.0288   18.4251 C   0  0  0  0  0  0  0  0  0  0  0  0
    9.1576   -4.6236   15.8860 O   0  0  0  0  0  0  0  0  0  0  0  0
    9.1509   -5.9108   17.7177 C   0  0  0  0  0  0  0  0  0  0  0  0
    3.6373   -9.5349   16.0582 N   0  0  0  0  0  0  0  0  0  0  0  0
    9.9275   -4.8001   18.0438 N   0  0  0  0  0  0  0  0  0  0  0  0
    8.5908   -5.7425   16.4412 C   0  0  0  0  0  0  0  0  0  0  0  0
   10.5993   -4.8981   21.6068 C   0  0  0  0  0  0  0  0  0  0  0  0
   10.4258   -3.0106   23.0998 C   0  0  0  0  0  0  0  0  0  0  0  0
   10.2148   -3.4364   25.4200 C   0  0  0  0  0  0  0  0  0  0  0  0
    9.7853   -1.1840   24.4927 C   0  0  0  0  0  0  0  0  0  0  0  0
    5.0276   -8.5227   17.5352 C   0  0  0  0  0  0  0  0  0  0  0  0
    9.8187   -2.0895   25.5800 C   0  0  0  0  0  0  0  0  0  0  0  0
    5.6473   -8.7216   15.3158 C   0  0  0  0  0  0  0  0  0  0  0  0
   10.7581   -3.1233   19.4720 N   0  0  0  0  0  0  0  0  0  0  0  0
    9.9571   -4.0573   16.8866 C   0  0  0  0  0  0  0  0  0  0  0  0
    7.6213   -6.5618   16.0087 C   0  0  0  0  0  0  0  0  0  0  0  0
   10.8583   -2.6527   20.7222 C   0  0  0  0  0  0  0  0  0  0  0  0
   10.6412   -3.5089   21.7936 C   0  0  0  0  0  0  0  0  0  0  0  0
   10.4972   -3.8968   24.1589 C   0  0  0  0  0  0  0  0  0  0  0  0
    5.9260   -8.2736   16.5517 C   0  0  0  0  0  0  0  0  0  0  0  0
    3.8816   -9.1166   17.2493 C   0  0  0  0  0  0  0  0  0  0  0  0
   10.1297   -1.6575   23.2324 C   0  0  0  0  0  0  0  0  0  0  0  0
    9.4684   -1.6929   26.7263 F   0  0  0  0  0  0  0  0  0  0  0  0
    7.7963   -7.7906   17.9837 C   0  0  0  0  0  0  0  0  0  0  0  0
   10.5884   -3.0725   16.7902 O   0  0  0  0  0  0  0  0  0  0  0  0
   10.4323   -5.3494   20.3516 C   0  0  0  0  0  0  0  0  0  0  0  0
    7.1156   -7.5454   16.8218 C   0  0  0  0  0  0  0  0  0  0  0  0
   10.3885   -4.4388   19.2773 C   0  0  0  0  0  0  0  0  0  0  0  0
    4.5160   -9.3822   15.0841 C   0  0  0  0  0  0  0  0  0  0  0  0
  1  3  4  0
  1 24  4  0
  2  6  4  0
  2 15  4  0
  3  5  4  0
  3  6  4  0
  4 21  4  0
  4 29  4  0
  5 15  4  0
  5 28  1  0
  6 16  4  0
  7 18  4  0
  7 26  4  0
  8 18  1  0
  8 19  4  0
  8 22  4  0
  9 12  4  0
  9 19  4  0
 10 12  4  0
 10 22  4  0
 11 20  4  0
 11 21  4  0
 12 23  1  0
 13 20  4  0
 13 29  4  0
 14 17  4  0
 14 28  4  0
 15 25  2  0
 16 27  4  0
 17 18  4  0
 20 27  1  0
 24 27  4  0
 26 28  4  0
M  END
$$$$

 Created by Python create_sdf_string function

 29 33  0  0  0  0  0  0  0  0999 V2000
    8.8270   -7.0288   18.4251 C   0  0  0  0  0  0  0  0  0  0  0  0
    9.1576   -4.6236   15.8860 O   0  0  0  0  0  0  0  0  0  0  0  0
    9.1509   -5.9108   17.7177 C   0  0  0  0  0  0  0  0  0  0  0  0
    3.6373   -9.5349   16.0582 N   0  0  0  0  0  0  0  0  0  0  0  0
    9.9275   -4.8001   18.0438 N   0  0  0  0  0  0  0  0  0  0  0  0
    8.5908   -5.7425   16.4412 C   0  0  0  0  0  0  0  0  0  0  0  0
   10.5993   -4.8981   21.6068 C   0  0  0  0  0  0  0  0  0  0  0  0
   10.4258   -3.0106   23.0998 C   0  0  0  0  0  0  0  0  0  0  0  0
   10.2148   -3.4364   25.4200 C   0  0  0  0  0  0  0  0  0  0  0  0
    9.7853   -1.1840   24.4927 C   0  0  0  0  0  0  0  0  0  0  0  0
    5.0276   -8.5227   17.5352 C   0  0  0  0  0  0  0  0  0  0  0  0
    9.8187   -2.0895   25.5800 C   0  0  0  0  0  0  0  0  0  0  0  0
    5.6473   -8.7216   15.3158 C   0  0  0  0  0  0  0  0  0  0  0  0
   10.7581   -3.1233   19.4720 N   0  0  0  0  0  0  0  0  0  0  0  0
    9.9571   -4.0573   16.8866 C   0  0  0  0  0  0  0  0  0  0  0  0
    7.6213   -6.5618   16.0087 C   0  0  0  0  0  0  0  0  0  0  0  0
   10.8583   -2.6527   20.7222 C   0  0  0  0  0  0  0  0  0  0  0  0
   10.6412   -3.5089   21.7936 C   0  0  0  0  0  0  0  0  0  0  0  0
   10.4972   -3.8968   24.1589 C   0  0  0  0  0  0  0  0  0  0  0  0
    5.9260   -8.2736   16.5517 C   0  0  0  0  0  0  0  0  0  0  0  0
    3.8816   -9.1166   17.2493 C   0  0  0  0  0  0  0  0  0  0  0  0
   10.1297   -1.6575   23.2324 C   0  0  0  0  0  0  0  0  0  0  0  0
    9.4684   -1.6929   26.7263 F   0  0  0  0  0  0  0  0  0  0  0  0
    7.7963   -7.7906   17.9837 C   0  0  0  0  0  0  0  0  0  0  0  0
   10.5884   -3.0725   16.7902 O   0  0  0  0  0  0  0  0  0  0  0  0
   10.4323   -5.3494   20.3516 C   0  0  0  0  0  0  0  0  0  0  0  0
    7.1156   -7.5454   16.8218 C   0  0  0  0  0  0  0  0  0  0  0  0
   10.3885   -4.4388   19.2773 C   0  0  0  0  0  0  0  0  0  0  0  0
    4.5160   -9.3822   15.0841 C   0  0  0  0  0  0  0  0  0  0  0  0
  1  3  4  0
  1 24  4  0
  2  6  4  0
  2 15  4  0
  3  5  4  0
  3  6  4  0
  4 21  4  0
  4 29  4  0
  5 15  4  0
  5 28  1  0
  6 16  4  0
  7 18  4  0
  7 26  4  0
  8 18  1  0
  8 19  4  0
  8 22  4  0
  9 12  4  0
  9 19  4  0
 10 12  4  0
 10 22  4  0
 11 20  4  0
 11 21  4  0
 12 23  1  0
 13 20  4  0
 13 29  4  0
 14 17  4  0
 14 28  4  0
 15 25  2  0
 16 27  4  0
 17 18  4  0
 20 27  1  0
 24 27  4  0
 26 28  4  0
M  END
$$$$

 Created by Python create_sdf_string function

 29 33  0  0  0  0  0  0  0  0999 V2000
    8.8270   -7.0288   18.4251 C   0  0  0  0  0  0  0  0  0  0  0  0
    9.1576   -4.6236   15.8860 O   0  0  0  0  0  0  0  0  0  0  0  0
    9.1509   -5.9108   17.7177 C   0  0  0  0  0  0  0  0  0  0  0  0
    3.6373   -9.5349   16.0582 N   0  0  0  0  0  0  0  0  0  0  0  0
    9.9275   -4.8001   18.0438 N   0  0  0  0  0  0  0  0  0  0  0  0
    8.5908   -5.7425   16.4412 C   0  0  0  0  0  0  0  0  0  0  0  0
   10.5993   -4.8981   21.6068 C   0  0  0  0  0  0  0  0  0  0  0  0
   10.4258   -3.0106   23.0998 C   0  0  0  0  0  0  0  0  0  0  0  0
   10.2148   -3.4364   25.4200 C   0  0  0  0  0  0  0  0  0  0  0  0
    9.7853   -1.1840   24.4927 C   0  0  0  0  0  0  0  0  0  0  0  0
    5.0276   -8.5227   17.5352 C   0  0  0  0  0  0  0  0  0  0  0  0
    9.8187   -2.0895   25.5800 C   0  0  0  0  0  0  0  0  0  0  0  0
    5.6473   -8.7216   15.3158 C   0  0  0  0  0  0  0  0  0  0  0  0
   10.7581   -3.1233   19.4720 N   0  0  0  0  0  0  0  0  0  0  0  0
    9.9571   -4.0573   16.8866 C   0  0  0  0  0  0  0  0  0  0  0  0
    7.6213   -6.5618   16.0087 C   0  0  0  0  0  0  0  0  0  0  0  0
   10.8583   -2.6527   20.7222 C   0  0  0  0  0  0  0  0  0  0  0  0
   10.6412   -3.5089   21.7936 C   0  0  0  0  0  0  0  0  0  0  0  0
   10.4972   -3.8968   24.1589 C   0  0  0  0  0  0  0  0  0  0  0  0
    5.9260   -8.2736   16.5517 C   0  0  0  0  0  0  0  0  0  0  0  0
    3.8816   -9.1166   17.2493 C   0  0  0  0  0  0  0  0  0  0  0  0
   10.1297   -1.6575   23.2324 C   0  0  0  0  0  0  0  0  0  0  0  0
    9.4684   -1.6929   26.7263 F   0  0  0  0  0  0  0  0  0  0  0  0
    7.7963   -7.7906   17.9837 C   0  0  0  0  0  0  0  0  0  0  0  0
   10.5884   -3.0725   16.7902 O   0  0  0  0  0  0  0  0  0  0  0  0
   10.4323   -5.3494   20.3516 C   0  0  0  0  0  0  0  0  0  0  0  0
    7.1156   -7.5454   16.8218 C   0  0  0  0  0  0  0  0  0  0  0  0
   10.3885   -4.4388   19.2773 C   0  0  0  0  0  0  0  0  0  0  0  0
    4.5160   -9.3822   15.0841 C   0  0  0  0  0  0  0  0  0  0  0  0
  1  3  4  0
  1 24  4  0
  2  6  4  0
  2 15  4  0
  3  5  4  0
  3  6  4  0
  4 21  4  0
  4 29  4  0
  5 15  4  0
  5 28  1  0
  6 16  4  0
  7 18  4  0
  7 26  4  0
  8 18  1  0
  8 19  4  0
  8 22  4  0
  9 12  4  0
  9 19  4  0
 10 12  4  0
 10 22  4  0
 11 20  4  0
 11 21  4  0
 12 23  1  0
 13 20  4  0
 13 29  4  0
 14 17  4  0
 14 28  4  0
 15 25  2  0
 16 27  4  0
 17 18  4  0
 20 27  1  0
 24 27  4  0
 26 28  4  0
M  END
$$$$

 Created by Python create_sdf_string function

 29 33  0  0  0  0  0  0  0  0999 V2000
    8.8270   -7.0288   18.4251 C   0  0  0  0  0  0  0  0  0  0  0  0
    9.1576   -4.6236   15.8860 O   0  0  0  0  0  0  0  0  0  0  0  0
    9.1509   -5.9108   17.7177 C   0  0  0  0  0  0  0  0  0  0  0  0
    3.6373   -9.5349   16.0582 N   0  0  0  0  0  0  0  0  0  0  0  0
    9.9275   -4.8001   18.0438 N   0  0  0  0  0  0  0  0  0  0  0  0
    8.5908   -5.7425   16.4412 C   0  0  0  0  0  0  0  0  0  0  0  0
   10.5993   -4.8981   21.6068 C   0  0  0  0  0  0  0  0  0  0  0  0
   10.4258   -3.0106   23.0998 C   0  0  0  0  0  0  0  0  0  0  0  0
   10.2148   -3.4364   25.4200 C   0  0  0  0  0  0  0  0  0  0  0  0
    9.7853   -1.1840   24.4927 C   0  0  0  0  0  0  0  0  0  0  0  0
    5.0276   -8.5227   17.5352 C   0  0  0  0  0  0  0  0  0  0  0  0
    9.8187   -2.0895   25.5800 C   0  0  0  0  0  0  0  0  0  0  0  0
    5.6473   -8.7216   15.3158 C   0  0  0  0  0  0  0  0  0  0  0  0
   10.7581   -3.1233   19.4720 N   0  0  0  0  0  0  0  0  0  0  0  0
    9.9571   -4.0573   16.8866 C   0  0  0  0  0  0  0  0  0  0  0  0
    7.6213   -6.5618   16.0087 C   0  0  0  0  0  0  0  0  0  0  0  0
   10.8583   -2.6527   20.7222 C   0  0  0  0  0  0  0  0  0  0  0  0
   10.6412   -3.5089   21.7936 C   0  0  0  0  0  0  0  0  0  0  0  0
   10.4972   -3.8968   24.1589 C   0  0  0  0  0  0  0  0  0  0  0  0
    5.9260   -8.2736   16.5517 C   0  0  0  0  0  0  0  0  0  0  0  0
    3.8816   -9.1166   17.2493 C   0  0  0  0  0  0  0  0  0  0  0  0
   10.1297   -1.6575   23.2324 C   0  0  0  0  0  0  0  0  0  0  0  0
    9.4684   -1.6929   26.7263 F   0  0  0  0  0  0  0  0  0  0  0  0
    7.7963   -7.7906   17.9837 C   0  0  0  0  0  0  0  0  0  0  0  0
   10.5884   -3.0725   16.7902 O   0  0  0  0  0  0  0  0  0  0  0  0
   10.4323   -5.3494   20.3516 C   0  0  0  0  0  0  0  0  0  0  0  0
    7.1156   -7.5454   16.8218 C   0  0  0  0  0  0  0  0  0  0  0  0
   10.3885   -4.4388   19.2773 C   0  0  0  0  0  0  0  0  0  0  0  0
    4.5160   -9.3822   15.0841 C   0  0  0  0  0  0  0  0  0  0  0  0
  1  3  4  0
  1 24  4  0
  2  6  4  0
  2 15  4  0
  3  5  4  0
  3  6  4  0
  4 21  4  0
  4 29  4  0
  5 15  4  0
  5 28  1  0
  6 16  4  0
  7 18  4  0
  7 26  4  0
  8 18  1  0
  8 19  4  0
  8 22  4  0
  9 12  4  0
  9 19  4  0
 10 12  4  0
 10 22  4  0
 11 20  4  0
 11 21  4  0
 12 23  1  0
 13 20  4  0
 13 29  4  0
 14 17  4  0
 14 28  4  0
 15 25  2  0
 16 27  4  0
 17 18  4  0
 20 27  1  0
 24 27  4  0
 26 28  4  0
M  END
$$$$

 Created by Python create_sdf_string function

 29 33  0  0  0  0  0  0  0  0999 V2000
    8.8270   -7.0288   18.4251 C   0  0  0  0  0  0  0  0  0  0  0  0
    9.1576   -4.6236   15.8860 O   0  0  0  0  0  0  0  0  0  0  0  0
    9.1509   -5.9108   17.7177 C   0  0  0  0  0  0  0  0  0  0  0  0
    3.6373   -9.5349   16.0582 N   0  0  0  0  0  0  0  0  0  0  0  0
    9.9275   -4.8001   18.0438 N   0  0  0  0  0  0  0  0  0  0  0  0
    8.5908   -5.7425   16.4412 C   0  0  0  0  0  0  0  0  0  0  0  0
   10.5993   -4.8981   21.6068 C   0  0  0  0  0  0  0  0  0  0  0  0
   10.4258   -3.0106   23.0998 C   0  0  0  0  0  0  0  0  0  0  0  0
   10.2148   -3.4364   25.4200 C   0  0  0  0  0  0  0  0  0  0  0  0
    9.7853   -1.1840   24.4927 C   0  0  0  0  0  0  0  0  0  0  0  0
    5.0276   -8.5227   17.5352 C   0  0  0  0  0  0  0  0  0  0  0  0
    9.8187   -2.0895   25.5800 C   0  0  0  0  0  0  0  0  0  0  0  0
    5.6473   -8.7216   15.3158 C   0  0  0  0  0  0  0  0  0  0  0  0
   10.7581   -3.1233   19.4720 N   0  0  0  0  0  0  0  0  0  0  0  0
    9.9571   -4.0573   16.8866 C   0  0  0  0  0  0  0  0  0  0  0  0
    7.6213   -6.5618   16.0087 C   0  0  0  0  0  0  0  0  0  0  0  0
   10.8583   -2.6527   20.7222 C   0  0  0  0  0  0  0  0  0  0  0  0
   10.6412   -3.5089   21.7936 C   0  0  0  0  0  0  0  0  0  0  0  0
   10.4972   -3.8968   24.1589 C   0  0  0  0  0  0  0  0  0  0  0  0
    5.9260   -8.2736   16.5517 C   0  0  0  0  0  0  0  0  0  0  0  0
    3.8816   -9.1166   17.2493 C   0  0  0  0  0  0  0  0  0  0  0  0
   10.1297   -1.6575   23.2324 C   0  0  0  0  0  0  0  0  0  0  0  0
    9.4684   -1.6929   26.7263 F   0  0  0  0  0  0  0  0  0  0  0  0
    7.7963   -7.7906   17.9837 C   0  0  0  0  0  0  0  0  0  0  0  0
   10.5884   -3.0725   16.7902 O   0  0  0  0  0  0  0  0  0  0  0  0
   10.4323   -5.3494   20.3516 C   0  0  0  0  0  0  0  0  0  0  0  0
    7.1156   -7.5454   16.8218 C   0  0  0  0  0  0  0  0  0  0  0  0
   10.3885   -4.4388   19.2773 C   0  0  0  0  0  0  0  0  0  0  0  0
    4.5160   -9.3822   15.0841 C   0  0  0  0  0  0  0  0  0  0  0  0
  1  3  4  0
  1 24  4  0
  2  6  4  0
  2 15  4  0
  3  5  4  0
  3  6  4  0
  4 21  4  0
  4 29  4  0
  5 15  4  0
  5 28  1  0
  6 16  4  0
  7 18  4  0
  7 26  4  0
  8 18  1  0
  8 19  4  0
  8 22  4  0
  9 12  4  0
  9 19  4  0
 10 12  4  0
 10 22  4  0
 11 20  4  0
 11 21  4  0
 12 23  1  0
 13 20  4  0
 13 29  4  0
 14 17  4  0
 14 28  4  0
 15 25  2  0
 16 27  4  0
 17 18  4  0
 20 27  1  0
 24 27  4  0
 26 28  4  0
M  END
$$$$

 Created by Python create_sdf_string function

 29 33  0  0  0  0  0  0  0  0999 V2000
    8.8270   -7.0288   18.4251 C   0  0  0  0  0  0  0  0  0  0  0  0
    9.1576   -4.6236   15.8860 O   0  0  0  0  0  0  0  0  0  0  0  0
    9.1509   -5.9108   17.7177 C   0  0  0  0  0  0  0  0  0  0  0  0
    3.6373   -9.5349   16.0582 N   0  0  0  0  0  0  0  0  0  0  0  0
    9.9275   -4.8001   18.0438 N   0  0  0  0  0  0  0  0  0  0  0  0
    8.5908   -5.7425   16.4412 C   0  0  0  0  0  0  0  0  0  0  0  0
   10.5993   -4.8981   21.6068 C   0  0  0  0  0  0  0  0  0  0  0  0
   10.4258   -3.0106   23.0998 C   0  0  0  0  0  0  0  0  0  0  0  0
   10.2148   -3.4364   25.4200 C   0  0  0  0  0  0  0  0  0  0  0  0
    9.7853   -1.1840   24.4927 C   0  0  0  0  0  0  0  0  0  0  0  0
    5.0276   -8.5227   17.5352 C   0  0  0  0  0  0  0  0  0  0  0  0
    9.8187   -2.0895   25.5800 C   0  0  0  0  0  0  0  0  0  0  0  0
    5.6473   -8.7216   15.3158 C   0  0  0  0  0  0  0  0  0  0  0  0
   10.7581   -3.1233   19.4720 N   0  0  0  0  0  0  0  0  0  0  0  0
    9.9571   -4.0573   16.8866 C   0  0  0  0  0  0  0  0  0  0  0  0
    7.6213   -6.5618   16.0087 C   0  0  0  0  0  0  0  0  0  0  0  0
   10.8583   -2.6527   20.7222 C   0  0  0  0  0  0  0  0  0  0  0  0
   10.6412   -3.5089   21.7936 C   0  0  0  0  0  0  0  0  0  0  0  0
   10.4972   -3.8968   24.1589 C   0  0  0  0  0  0  0  0  0  0  0  0
    5.9260   -8.2736   16.5517 C   0  0  0  0  0  0  0  0  0  0  0  0
    3.8816   -9.1166   17.2493 C   0  0  0  0  0  0  0  0  0  0  0  0
   10.1297   -1.6575   23.2324 C   0  0  0  0  0  0  0  0  0  0  0  0
    9.4684   -1.6929   26.7263 F   0  0  0  0  0  0  0  0  0  0  0  0
    7.7963   -7.7906   17.9837 C   0  0  0  0  0  0  0  0  0  0  0  0
   10.5884   -3.0725   16.7902 O   0  0  0  0  0  0  0  0  0  0  0  0
   10.4323   -5.3494   20.3516 C   0  0  0  0  0  0  0  0  0  0  0  0
    7.1156   -7.5454   16.8218 C   0  0  0  0  0  0  0  0  0  0  0  0
   10.3885   -4.4388   19.2773 C   0  0  0  0  0  0  0  0  0  0  0  0
    4.5160   -9.3822   15.0841 C   0  0  0  0  0  0  0  0  0  0  0  0
  1  3  4  0
  1 24  4  0
  2  6  4  0
  2 15  4  0
  3  5  4  0
  3  6  4  0
  4 21  4  0
  4 29  4  0
  5 15  4  0
  5 28  1  0
  6 16  4  0
  7 18  4  0
  7 26  4  0
  8 18  1  0
  8 19  4  0
  8 22  4  0
  9 12  4  0
  9 19  4  0
 10 12  4  0
 10 22  4  0
 11 20  4  0
 11 21  4  0
 12 23  1  0
 13 20  4  0
 13 29  4  0
 14 17  4  0
 14 28  4  0
 15 25  2  0
 16 27  4  0
 17 18  4  0
 20 27  1  0
 24 27  4  0
 26 28  4  0
M  END
$$$$

 Created by Python create_sdf_string function

 29 33  0  0  0  0  0  0  0  0999 V2000
    8.8270   -7.0288   18.4251 C   0  0  0  0  0  0  0  0  0  0  0  0
    9.1576   -4.6236   15.8860 O   0  0  0  0  0  0  0  0  0  0  0  0
    9.1509   -5.9108   17.7177 C   0  0  0  0  0  0  0  0  0  0  0  0
    3.6373   -9.5349   16.0582 N   0  0  0  0  0  0  0  0  0  0  0  0
    9.9275   -4.8001   18.0438 N   0  0  0  0  0  0  0  0  0  0  0  0
    8.5908   -5.7425   16.4412 C   0  0  0  0  0  0  0  0  0  0  0  0
   10.5993   -4.8981   21.6068 C   0  0  0  0  0  0  0  0  0  0  0  0
   10.4258   -3.0106   23.0998 C   0  0  0  0  0  0  0  0  0  0  0  0
   10.2148   -3.4364   25.4200 C   0  0  0  0  0  0  0  0  0  0  0  0
    9.7853   -1.1840   24.4927 C   0  0  0  0  0  0  0  0  0  0  0  0
    5.0276   -8.5227   17.5352 C   0  0  0  0  0  0  0  0  0  0  0  0
    9.8187   -2.0895   25.5800 C   0  0  0  0  0  0  0  0  0  0  0  0
    5.6473   -8.7216   15.3158 C   0  0  0  0  0  0  0  0  0  0  0  0
   10.7581   -3.1233   19.4720 N   0  0  0  0  0  0  0  0  0  0  0  0
    9.9571   -4.0573   16.8866 C   0  0  0  0  0  0  0  0  0  0  0  0
    7.6213   -6.5618   16.0087 C   0  0  0  0  0  0  0  0  0  0  0  0
   10.8583   -2.6527   20.7222 C   0  0  0  0  0  0  0  0  0  0  0  0
   10.6412   -3.5089   21.7936 C   0  0  0  0  0  0  0  0  0  0  0  0
   10.4972   -3.8968   24.1589 C   0  0  0  0  0  0  0  0  0  0  0  0
    5.9260   -8.2736   16.5517 C   0  0  0  0  0  0  0  0  0  0  0  0
    3.8816   -9.1166   17.2493 C   0  0  0  0  0  0  0  0  0  0  0  0
   10.1297   -1.6575   23.2324 C   0  0  0  0  0  0  0  0  0  0  0  0
    9.4684   -1.6929   26.7263 F   0  0  0  0  0  0  0  0  0  0  0  0
    7.7963   -7.7906   17.9837 C   0  0  0  0  0  0  0  0  0  0  0  0
   10.5884   -3.0725   16.7902 O   0  0  0  0  0  0  0  0  0  0  0  0
   10.4323   -5.3494   20.3516 C   0  0  0  0  0  0  0  0  0  0  0  0
    7.1156   -7.5454   16.8218 C   0  0  0  0  0  0  0  0  0  0  0  0
   10.3885   -4.4388   19.2773 C   0  0  0  0  0  0  0  0  0  0  0  0
    4.5160   -9.3822   15.0841 C   0  0  0  0  0  0  0  0  0  0  0  0
  1  3  4  0
  1 24  4  0
  2  6  4  0
  2 15  4  0
  3  5  4  0
  3  6  4  0
  4 21  4  0
  4 29  4  0
  5 15  4  0
  5 28  1  0
  6 16  4  0
  7 18  4  0
  7 26  4  0
  8 18  1  0
  8 19  4  0
  8 22  4  0
  9 12  4  0
  9 19  4  0
 10 12  4  0
 10 22  4  0
 11 20  4  0
 11 21  4  0
 12 23  1  0
 13 20  4  0
 13 29  4  0
 14 17  4  0
 14 28  4  0
 15 25  2  0
 16 27  4  0
 17 18  4  0
 20 27  1  0
 24 27  4  0
 26 28  4  0
M  END
$$$$

 Created by Python create_sdf_string function

 29 33  0  0  0  0  0  0  0  0999 V2000
    8.8270   -7.0288   18.4251 C   0  0  0  0  0  0  0  0  0  0  0  0
    9.1576   -4.6236   15.8860 O   0  0  0  0  0  0  0  0  0  0  0  0
    9.1509   -5.9108   17.7177 C   0  0  0  0  0  0  0  0  0  0  0  0
    3.6373   -9.5349   16.0582 N   0  0  0  0  0  0  0  0  0  0  0  0
    9.9275   -4.8001   18.0438 N   0  0  0  0  0  0  0  0  0  0  0  0
    8.5908   -5.7425   16.4412 C   0  0  0  0  0  0  0  0  0  0  0  0
   10.5993   -4.8981   21.6068 C   0  0  0  0  0  0  0  0  0  0  0  0
   10.4258   -3.0106   23.0998 C   0  0  0  0  0  0  0  0  0  0  0  0
   10.2148   -3.4364   25.4200 C   0  0  0  0  0  0  0  0  0  0  0  0
    9.7853   -1.1840   24.4927 C   0  0  0  0  0  0  0  0  0  0  0  0
    5.0276   -8.5227   17.5352 C   0  0  0  0  0  0  0  0  0  0  0  0
    9.8187   -2.0895   25.5800 C   0  0  0  0  0  0  0  0  0  0  0  0
    5.6473   -8.7216   15.3158 C   0  0  0  0  0  0  0  0  0  0  0  0
   10.7581   -3.1233   19.4720 N   0  0  0  0  0  0  0  0  0  0  0  0
    9.9571   -4.0573   16.8866 C   0  0  0  0  0  0  0  0  0  0  0  0
    7.6213   -6.5618   16.0087 C   0  0  0  0  0  0  0  0  0  0  0  0
   10.8583   -2.6527   20.7222 C   0  0  0  0  0  0  0  0  0  0  0  0
   10.6412   -3.5089   21.7936 C   0  0  0  0  0  0  0  0  0  0  0  0
   10.4972   -3.8968   24.1589 C   0  0  0  0  0  0  0  0  0  0  0  0
    5.9260   -8.2736   16.5517 C   0  0  0  0  0  0  0  0  0  0  0  0
    3.8816   -9.1166   17.2493 C   0  0  0  0  0  0  0  0  0  0  0  0
   10.1297   -1.6575   23.2324 C   0  0  0  0  0  0  0  0  0  0  0  0
    9.4684   -1.6929   26.7263 F   0  0  0  0  0  0  0  0  0  0  0  0
    7.7963   -7.7906   17.9837 C   0  0  0  0  0  0  0  0  0  0  0  0
   10.5884   -3.0725   16.7902 O   0  0  0  0  0  0  0  0  0  0  0  0
   10.4323   -5.3494   20.3516 C   0  0  0  0  0  0  0  0  0  0  0  0
    7.1156   -7.5454   16.8218 C   0  0  0  0  0  0  0  0  0  0  0  0
   10.3885   -4.4388   19.2773 C   0  0  0  0  0  0  0  0  0  0  0  0
    4.5160   -9.3822   15.0841 C   0  0  0  0  0  0  0  0  0  0  0  0
  1  3  4  0
  1 24  4  0
  2  6  4  0
  2 15  4  0
  3  5  4  0
  3  6  4  0
  4 21  4  0
  4 29  4  0
  5 15  4  0
  5 28  1  0
  6 16  4  0
  7 18  4  0
  7 26  4  0
  8 18  1  0
  8 19  4  0
  8 22  4  0
  9 12  4  0
  9 19  4  0
 10 12  4  0
 10 22  4  0
 11 20  4  0
 11 21  4  0
 12 23  1  0
 13 20  4  0
 13 29  4  0
 14 17  4  0
 14 28  4  0
 15 25  2  0
 16 27  4  0
 17 18  4  0
 20 27  1  0
 24 27  4  0
 26 28  4  0
M  END
$$$$

 Created by Python create_sdf_string function

 29 33  0  0  0  0  0  0  0  0999 V2000
    8.8270   -7.0288   18.4251 C   0  0  0  0  0  0  0  0  0  0  0  0
    9.1576   -4.6236   15.8860 O   0  0  0  0  0  0  0  0  0  0  0  0
    9.1509   -5.9108   17.7177 C   0  0  0  0  0  0  0  0  0  0  0  0
    3.6373   -9.5349   16.0582 N   0  0  0  0  0  0  0  0  0  0  0  0
    9.9275   -4.8001   18.0438 N   0  0  0  0  0  0  0  0  0  0  0  0
    8.5908   -5.7425   16.4412 C   0  0  0  0  0  0  0  0  0  0  0  0
   10.5993   -4.8981   21.6068 C   0  0  0  0  0  0  0  0  0  0  0  0
   10.4258   -3.0106   23.0998 C   0  0  0  0  0  0  0  0  0  0  0  0
   10.2148   -3.4364   25.4200 C   0  0  0  0  0  0  0  0  0  0  0  0
    9.7853   -1.1840   24.4927 C   0  0  0  0  0  0  0  0  0  0  0  0
    5.0276   -8.5227   17.5352 C   0  0  0  0  0  0  0  0  0  0  0  0
    9.8187   -2.0895   25.5800 C   0  0  0  0  0  0  0  0  0  0  0  0
    5.6473   -8.7216   15.3158 C   0  0  0  0  0  0  0  0  0  0  0  0
   10.7581   -3.1233   19.4720 N   0  0  0  0  0  0  0  0  0  0  0  0
    9.9571   -4.0573   16.8866 C   0  0  0  0  0  0  0  0  0  0  0  0
    7.6213   -6.5618   16.0087 C   0  0  0  0  0  0  0  0  0  0  0  0
   10.8583   -2.6527   20.7222 C   0  0  0  0  0  0  0  0  0  0  0  0
   10.6412   -3.5089   21.7936 C   0  0  0  0  0  0  0  0  0  0  0  0
   10.4972   -3.8968   24.1589 C   0  0  0  0  0  0  0  0  0  0  0  0
    5.9260   -8.2736   16.5517 C   0  0  0  0  0  0  0  0  0  0  0  0
    3.8816   -9.1166   17.2493 C   0  0  0  0  0  0  0  0  0  0  0  0
   10.1297   -1.6575   23.2324 C   0  0  0  0  0  0  0  0  0  0  0  0
    9.4684   -1.6929   26.7263 F   0  0  0  0  0  0  0  0  0  0  0  0
    7.7963   -7.7906   17.9837 C   0  0  0  0  0  0  0  0  0  0  0  0
   10.5884   -3.0725   16.7902 O   0  0  0  0  0  0  0  0  0  0  0  0
   10.4323   -5.3494   20.3516 C   0  0  0  0  0  0  0  0  0  0  0  0
    7.1156   -7.5454   16.8218 C   0  0  0  0  0  0  0  0  0  0  0  0
   10.3885   -4.4388   19.2773 C   0  0  0  0  0  0  0  0  0  0  0  0
    4.5160   -9.3822   15.0841 C   0  0  0  0  0  0  0  0  0  0  0  0
  1  3  4  0
  1 24  4  0
  2  6  4  0
  2 15  4  0
  3  5  4  0
  3  6  4  0
  4 21  4  0
  4 29  4  0
  5 15  4  0
  5 28  1  0
  6 16  4  0
  7 18  4  0
  7 26  4  0
  8 18  1  0
  8 19  4  0
  8 22  4  0
  9 12  4  0
  9 19  4  0
 10 12  4  0
 10 22  4  0
 11 20  4  0
 11 21  4  0
 12 23  1  0
 13 20  4  0
 13 29  4  0
 14 17  4  0
 14 28  4  0
 15 25  2  0
 16 27  4  0
 17 18  4  0
 20 27  1  0
 24 27  4  0
 26 28  4  0
M  END
$$$$

 Created by Python create_sdf_string function

 29 33  0  0  0  0  0  0  0  0999 V2000
    8.8270   -7.0288   18.4251 C   0  0  0  0  0  0  0  0  0  0  0  0
    9.1576   -4.6236   15.8860 O   0  0  0  0  0  0  0  0  0  0  0  0
    9.1509   -5.9108   17.7177 C   0  0  0  0  0  0  0  0  0  0  0  0
    3.6373   -9.5349   16.0582 N   0  0  0  0  0  0  0  0  0  0  0  0
    9.9275   -4.8001   18.0438 N   0  0  0  0  0  0  0  0  0  0  0  0
    8.5908   -5.7425   16.4412 C   0  0  0  0  0  0  0  0  0  0  0  0
   10.5993   -4.8981   21.6068 C   0  0  0  0  0  0  0  0  0  0  0  0
   10.4258   -3.0106   23.0998 C   0  0  0  0  0  0  0  0  0  0  0  0
   10.2148   -3.4364   25.4200 C   0  0  0  0  0  0  0  0  0  0  0  0
    9.7853   -1.1840   24.4927 C   0  0  0  0  0  0  0  0  0  0  0  0
    5.0276   -8.5227   17.5352 C   0  0  0  0  0  0  0  0  0  0  0  0
    9.8187   -2.0895   25.5800 C   0  0  0  0  0  0  0  0  0  0  0  0
    5.6473   -8.7216   15.3158 C   0  0  0  0  0  0  0  0  0  0  0  0
   10.7581   -3.1233   19.4720 N   0  0  0  0  0  0  0  0  0  0  0  0
    9.9571   -4.0573   16.8866 C   0  0  0  0  0  0  0  0  0  0  0  0
    7.6213   -6.5618   16.0087 C   0  0  0  0  0  0  0  0  0  0  0  0
   10.8583   -2.6527   20.7222 C   0  0  0  0  0  0  0  0  0  0  0  0
   10.6412   -3.5089   21.7936 C   0  0  0  0  0  0  0  0  0  0  0  0
   10.4972   -3.8968   24.1589 C   0  0  0  0  0  0  0  0  0  0  0  0
    5.9260   -8.2736   16.5517 C   0  0  0  0  0  0  0  0  0  0  0  0
    3.8816   -9.1166   17.2493 C   0  0  0  0  0  0  0  0  0  0  0  0
   10.1297   -1.6575   23.2324 C   0  0  0  0  0  0  0  0  0  0  0  0
    9.4684   -1.6929   26.7263 F   0  0  0  0  0  0  0  0  0  0  0  0
    7.7963   -7.7906   17.9837 C   0  0  0  0  0  0  0  0  0  0  0  0
   10.5884   -3.0725   16.7902 O   0  0  0  0  0  0  0  0  0  0  0  0
   10.4323   -5.3494   20.3516 C   0  0  0  0  0  0  0  0  0  0  0  0
    7.1156   -7.5454   16.8218 C   0  0  0  0  0  0  0  0  0  0  0  0
   10.3885   -4.4388   19.2773 C   0  0  0  0  0  0  0  0  0  0  0  0
    4.5160   -9.3822   15.0841 C   0  0  0  0  0  0  0  0  0  0  0  0
  1  3  4  0
  1 24  4  0
  2  6  4  0
  2 15  4  0
  3  5  4  0
  3  6  4  0
  4 21  4  0
  4 29  4  0
  5 15  4  0
  5 28  1  0
  6 16  4  0
  7 18  4  0
  7 26  4  0
  8 18  1  0
  8 19  4  0
  8 22  4  0
  9 12  4  0
  9 19  4  0
 10 12  4  0
 10 22  4  0
 11 20  4  0
 11 21  4  0
 12 23  1  0
 13 20  4  0
 13 29  4  0
 14 17  4  0
 14 28  4  0
 15 25  2  0
 16 27  4  0
 17 18  4  0
 20 27  1  0
 24 27  4  0
 26 28  4  0
M  END
$$$$

 Created by Python create_sdf_string function

 29 33  0  0  0  0  0  0  0  0999 V2000
    8.8270   -7.0288   18.4251 C   0  0  0  0  0  0  0  0  0  0  0  0
    9.1576   -4.6236   15.8860 O   0  0  0  0  0  0  0  0  0  0  0  0
    9.1509   -5.9108   17.7177 C   0  0  0  0  0  0  0  0  0  0  0  0
    3.6373   -9.5349   16.0582 N   0  0  0  0  0  0  0  0  0  0  0  0
    9.9275   -4.8001   18.0438 N   0  0  0  0  0  0  0  0  0  0  0  0
    8.5908   -5.7425   16.4412 C   0  0  0  0  0  0  0  0  0  0  0  0
   10.5993   -4.8981   21.6068 C   0  0  0  0  0  0  0  0  0  0  0  0
   10.4258   -3.0106   23.0998 C   0  0  0  0  0  0  0  0  0  0  0  0
   10.2148   -3.4364   25.4200 C   0  0  0  0  0  0  0  0  0  0  0  0
    9.7853   -1.1840   24.4927 C   0  0  0  0  0  0  0  0  0  0  0  0
    5.0276   -8.5227   17.5352 C   0  0  0  0  0  0  0  0  0  0  0  0
    9.8187   -2.0895   25.5800 C   0  0  0  0  0  0  0  0  0  0  0  0
    5.6473   -8.7216   15.3158 C   0  0  0  0  0  0  0  0  0  0  0  0
   10.7581   -3.1233   19.4720 N   0  0  0  0  0  0  0  0  0  0  0  0
    9.9571   -4.0573   16.8866 C   0  0  0  0  0  0  0  0  0  0  0  0
    7.6213   -6.5618   16.0087 C   0  0  0  0  0  0  0  0  0  0  0  0
   10.8583   -2.6527   20.7222 C   0  0  0  0  0  0  0  0  0  0  0  0
   10.6412   -3.5089   21.7936 C   0  0  0  0  0  0  0  0  0  0  0  0
   10.4972   -3.8968   24.1589 C   0  0  0  0  0  0  0  0  0  0  0  0
    5.9260   -8.2736   16.5517 C   0  0  0  0  0  0  0  0  0  0  0  0
    3.8816   -9.1166   17.2493 C   0  0  0  0  0  0  0  0  0  0  0  0
   10.1297   -1.6575   23.2324 C   0  0  0  0  0  0  0  0  0  0  0  0
    9.4684   -1.6929   26.7263 F   0  0  0  0  0  0  0  0  0  0  0  0
    7.7963   -7.7906   17.9837 C   0  0  0  0  0  0  0  0  0  0  0  0
   10.5884   -3.0725   16.7902 O   0  0  0  0  0  0  0  0  0  0  0  0
   10.4323   -5.3494   20.3516 C   0  0  0  0  0  0  0  0  0  0  0  0
    7.1156   -7.5454   16.8218 C   0  0  0  0  0  0  0  0  0  0  0  0
   10.3885   -4.4388   19.2773 C   0  0  0  0  0  0  0  0  0  0  0  0
    4.5160   -9.3822   15.0841 C   0  0  0  0  0  0  0  0  0  0  0  0
  1  3  4  0
  1 24  4  0
  2  6  4  0
  2 15  4  0
  3  5  4  0
  3  6  4  0
  4 21  4  0
  4 29  4  0
  5 15  4  0
  5 28  1  0
  6 16  4  0
  7 18  4  0
  7 26  4  0
  8 18  1  0
  8 19  4  0
  8 22  4  0
  9 12  4  0
  9 19  4  0
 10 12  4  0
 10 22  4  0
 11 20  4  0
 11 21  4  0
 12 23  1  0
 13 20  4  0
 13 29  4  0
 14 17  4  0
 14 28  4  0
 15 25  2  0
 16 27  4  0
 17 18  4  0
 20 27  1  0
 24 27  4  0
 26 28  4  0
M  END
$$$$

 Created by Python create_sdf_string function

 29 33  0  0  0  0  0  0  0  0999 V2000
    8.8270   -7.0288   18.4251 C   0  0  0  0  0  0  0  0  0  0  0  0
    9.1576   -4.6236   15.8860 O   0  0  0  0  0  0  0  0  0  0  0  0
    9.1509   -5.9108   17.7177 C   0  0  0  0  0  0  0  0  0  0  0  0
    3.6373   -9.5349   16.0582 N   0  0  0  0  0  0  0  0  0  0  0  0
    9.9275   -4.8001   18.0438 N   0  0  0  0  0  0  0  0  0  0  0  0
    8.5908   -5.7425   16.4412 C   0  0  0  0  0  0  0  0  0  0  0  0
   10.5993   -4.8981   21.6068 C   0  0  0  0  0  0  0  0  0  0  0  0
   10.4258   -3.0106   23.0998 C   0  0  0  0  0  0  0  0  0  0  0  0
   10.2148   -3.4364   25.4200 C   0  0  0  0  0  0  0  0  0  0  0  0
    9.7853   -1.1840   24.4927 C   0  0  0  0  0  0  0  0  0  0  0  0
    5.0276   -8.5227   17.5352 C   0  0  0  0  0  0  0  0  0  0  0  0
    9.8187   -2.0895   25.5800 C   0  0  0  0  0  0  0  0  0  0  0  0
    5.6473   -8.7216   15.3158 C   0  0  0  0  0  0  0  0  0  0  0  0
   10.7581   -3.1233   19.4720 N   0  0  0  0  0  0  0  0  0  0  0  0
    9.9571   -4.0573   16.8866 C   0  0  0  0  0  0  0  0  0  0  0  0
    7.6213   -6.5618   16.0087 C   0  0  0  0  0  0  0  0  0  0  0  0
   10.8583   -2.6527   20.7222 C   0  0  0  0  0  0  0  0  0  0  0  0
   10.6412   -3.5089   21.7936 C   0  0  0  0  0  0  0  0  0  0  0  0
   10.4972   -3.8968   24.1589 C   0  0  0  0  0  0  0  0  0  0  0  0
    5.9260   -8.2736   16.5517 C   0  0  0  0  0  0  0  0  0  0  0  0
    3.8816   -9.1166   17.2493 C   0  0  0  0  0  0  0  0  0  0  0  0
   10.1297   -1.6575   23.2324 C   0  0  0  0  0  0  0  0  0  0  0  0
    9.4684   -1.6929   26.7263 F   0  0  0  0  0  0  0  0  0  0  0  0
    7.7963   -7.7906   17.9837 C   0  0  0  0  0  0  0  0  0  0  0  0
   10.5884   -3.0725   16.7902 O   0  0  0  0  0  0  0  0  0  0  0  0
   10.4323   -5.3494   20.3516 C   0  0  0  0  0  0  0  0  0  0  0  0
    7.1156   -7.5454   16.8218 C   0  0  0  0  0  0  0  0  0  0  0  0
   10.3885   -4.4388   19.2773 C   0  0  0  0  0  0  0  0  0  0  0  0
    4.5160   -9.3822   15.0841 C   0  0  0  0  0  0  0  0  0  0  0  0
  1  3  4  0
  1 24  4  0
  2  6  4  0
  2 15  4  0
  3  5  4  0
  3  6  4  0
  4 21  4  0
  4 29  4  0
  5 15  4  0
  5 28  1  0
  6 16  4  0
  7 18  4  0
  7 26  4  0
  8 18  1  0
  8 19  4  0
  8 22  4  0
  9 12  4  0
  9 19  4  0
 10 12  4  0
 10 22  4  0
 11 20  4  0
 11 21  4  0
 12 23  1  0
 13 20  4  0
 13 29  4  0
 14 17  4  0
 14 28  4  0
 15 25  2  0
 16 27  4  0
 17 18  4  0
 20 27  1  0
 24 27  4  0
 26 28  4  0
M  END
$$$$

 Created by Python create_sdf_string function

 29 33  0  0  0  0  0  0  0  0999 V2000
    8.8270   -7.0288   18.4251 C   0  0  0  0  0  0  0  0  0  0  0  0
    9.1576   -4.6236   15.8860 O   0  0  0  0  0  0  0  0  0  0  0  0
    9.1509   -5.9108   17.7177 C   0  0  0  0  0  0  0  0  0  0  0  0
    3.6373   -9.5349   16.0582 N   0  0  0  0  0  0  0  0  0  0  0  0
    9.9275   -4.8001   18.0438 N   0  0  0  0  0  0  0  0  0  0  0  0
    8.5908   -5.7425   16.4412 C   0  0  0  0  0  0  0  0  0  0  0  0
   10.5993   -4.8981   21.6068 C   0  0  0  0  0  0  0  0  0  0  0  0
   10.4258   -3.0106   23.0998 C   0  0  0  0  0  0  0  0  0  0  0  0
   10.2148   -3.4364   25.4200 C   0  0  0  0  0  0  0  0  0  0  0  0
    9.7853   -1.1840   24.4927 C   0  0  0  0  0  0  0  0  0  0  0  0
    5.0276   -8.5227   17.5352 C   0  0  0  0  0  0  0  0  0  0  0  0
    9.8187   -2.0895   25.5800 C   0  0  0  0  0  0  0  0  0  0  0  0
    5.6473   -8.7216   15.3158 C   0  0  0  0  0  0  0  0  0  0  0  0
   10.7581   -3.1233   19.4720 N   0  0  0  0  0  0  0  0  0  0  0  0
    9.9571   -4.0573   16.8866 C   0  0  0  0  0  0  0  0  0  0  0  0
    7.6213   -6.5618   16.0087 C   0  0  0  0  0  0  0  0  0  0  0  0
   10.8583   -2.6527   20.7222 C   0  0  0  0  0  0  0  0  0  0  0  0
   10.6412   -3.5089   21.7936 C   0  0  0  0  0  0  0  0  0  0  0  0
   10.4972   -3.8968   24.1589 C   0  0  0  0  0  0  0  0  0  0  0  0
    5.9260   -8.2736   16.5517 C   0  0  0  0  0  0  0  0  0  0  0  0
    3.8816   -9.1166   17.2493 C   0  0  0  0  0  0  0  0  0  0  0  0
   10.1297   -1.6575   23.2324 C   0  0  0  0  0  0  0  0  0  0  0  0
    9.4684   -1.6929   26.7263 F   0  0  0  0  0  0  0  0  0  0  0  0
    7.7963   -7.7906   17.9837 C   0  0  0  0  0  0  0  0  0  0  0  0
   10.5884   -3.0725   16.7902 O   0  0  0  0  0  0  0  0  0  0  0  0
   10.4323   -5.3494   20.3516 C   0  0  0  0  0  0  0  0  0  0  0  0
    7.1156   -7.5454   16.8218 C   0  0  0  0  0  0  0  0  0  0  0  0
   10.3885   -4.4388   19.2773 C   0  0  0  0  0  0  0  0  0  0  0  0
    4.5160   -9.3822   15.0841 C   0  0  0  0  0  0  0  0  0  0  0  0
  1  3  4  0
  1 24  4  0
  2  6  4  0
  2 15  4  0
  3  5  4  0
  3  6  4  0
  4 21  4  0
  4 29  4  0
  5 15  4  0
  5 28  1  0
  6 16  4  0
  7 18  4  0
  7 26  4  0
  8 18  1  0
  8 19  4  0
  8 22  4  0
  9 12  4  0
  9 19  4  0
 10 12  4  0
 10 22  4  0
 11 20  4  0
 11 21  4  0
 12 23  1  0
 13 20  4  0
 13 29  4  0
 14 17  4  0
 14 28  4  0
 15 25  2  0
 16 27  4  0
 17 18  4  0
 20 27  1  0
 24 27  4  0
 26 28  4  0
M  END
$$$$

 Created by Python create_sdf_string function

 29 33  0  0  0  0  0  0  0  0999 V2000
    8.8270   -7.0288   18.4251 C   0  0  0  0  0  0  0  0  0  0  0  0
    9.1576   -4.6236   15.8860 O   0  0  0  0  0  0  0  0  0  0  0  0
    9.1509   -5.9108   17.7177 C   0  0  0  0  0  0  0  0  0  0  0  0
    3.6373   -9.5349   16.0582 N   0  0  0  0  0  0  0  0  0  0  0  0
    9.9275   -4.8001   18.0438 N   0  0  0  0  0  0  0  0  0  0  0  0
    8.5908   -5.7425   16.4412 C   0  0  0  0  0  0  0  0  0  0  0  0
   10.5993   -4.8981   21.6068 C   0  0  0  0  0  0  0  0  0  0  0  0
   10.4258   -3.0106   23.0998 C   0  0  0  0  0  0  0  0  0  0  0  0
   10.2148   -3.4364   25.4200 C   0  0  0  0  0  0  0  0  0  0  0  0
    9.7853   -1.1840   24.4927 C   0  0  0  0  0  0  0  0  0  0  0  0
    5.0276   -8.5227   17.5352 C   0  0  0  0  0  0  0  0  0  0  0  0
    9.8187   -2.0895   25.5800 C   0  0  0  0  0  0  0  0  0  0  0  0
    5.6473   -8.7216   15.3158 C   0  0  0  0  0  0  0  0  0  0  0  0
   10.7581   -3.1233   19.4720 N   0  0  0  0  0  0  0  0  0  0  0  0
    9.9571   -4.0573   16.8866 C   0  0  0  0  0  0  0  0  0  0  0  0
    7.6213   -6.5618   16.0087 C   0  0  0  0  0  0  0  0  0  0  0  0
   10.8583   -2.6527   20.7222 C   0  0  0  0  0  0  0  0  0  0  0  0
   10.6412   -3.5089   21.7936 C   0  0  0  0  0  0  0  0  0  0  0  0
   10.4972   -3.8968   24.1589 C   0  0  0  0  0  0  0  0  0  0  0  0
    5.9260   -8.2736   16.5517 C   0  0  0  0  0  0  0  0  0  0  0  0
    3.8816   -9.1166   17.2493 C   0  0  0  0  0  0  0  0  0  0  0  0
   10.1297   -1.6575   23.2324 C   0  0  0  0  0  0  0  0  0  0  0  0
    9.4684   -1.6929   26.7263 F   0  0  0  0  0  0  0  0  0  0  0  0
    7.7963   -7.7906   17.9837 C   0  0  0  0  0  0  0  0  0  0  0  0
   10.5884   -3.0725   16.7902 O   0  0  0  0  0  0  0  0  0  0  0  0
   10.4323   -5.3494   20.3516 C   0  0  0  0  0  0  0  0  0  0  0  0
    7.1156   -7.5454   16.8218 C   0  0  0  0  0  0  0  0  0  0  0  0
   10.3885   -4.4388   19.2773 C   0  0  0  0  0  0  0  0  0  0  0  0
    4.5160   -9.3822   15.0841 C   0  0  0  0  0  0  0  0  0  0  0  0
  1  3  4  0
  1 24  4  0
  2  6  4  0
  2 15  4  0
  3  5  4  0
  3  6  4  0
  4 21  4  0
  4 29  4  0
  5 15  4  0
  5 28  1  0
  6 16  4  0
  7 18  4  0
  7 26  4  0
  8 18  1  0
  8 19  4  0
  8 22  4  0
  9 12  4  0
  9 19  4  0
 10 12  4  0
 10 22  4  0
 11 20  4  0
 11 21  4  0
 12 23  1  0
 13 20  4  0
 13 29  4  0
 14 17  4  0
 14 28  4  0
 15 25  2  0
 16 27  4  0
 17 18  4  0
 20 27  1  0
 24 27  4  0
 26 28  4  0
M  END
$$$$

 Created by Python create_sdf_string function

 29 33  0  0  0  0  0  0  0  0999 V2000
    8.8270   -7.0288   18.4251 C   0  0  0  0  0  0  0  0  0  0  0  0
    9.1576   -4.6236   15.8860 O   0  0  0  0  0  0  0  0  0  0  0  0
    9.1509   -5.9108   17.7177 C   0  0  0  0  0  0  0  0  0  0  0  0
    3.6373   -9.5349   16.0582 N   0  0  0  0  0  0  0  0  0  0  0  0
    9.9275   -4.8001   18.0438 N   0  0  0  0  0  0  0  0  0  0  0  0
    8.5908   -5.7425   16.4412 C   0  0  0  0  0  0  0  0  0  0  0  0
   10.5993   -4.8981   21.6068 C   0  0  0  0  0  0  0  0  0  0  0  0
   10.4258   -3.0106   23.0998 C   0  0  0  0  0  0  0  0  0  0  0  0
   10.2148   -3.4364   25.4200 C   0  0  0  0  0  0  0  0  0  0  0  0
    9.7853   -1.1840   24.4927 C   0  0  0  0  0  0  0  0  0  0  0  0
    5.0276   -8.5227   17.5352 C   0  0  0  0  0  0  0  0  0  0  0  0
    9.8187   -2.0895   25.5800 C   0  0  0  0  0  0  0  0  0  0  0  0
    5.6473   -8.7216   15.3158 C   0  0  0  0  0  0  0  0  0  0  0  0
   10.7581   -3.1233   19.4720 N   0  0  0  0  0  0  0  0  0  0  0  0
    9.9571   -4.0573   16.8866 C   0  0  0  0  0  0  0  0  0  0  0  0
    7.6213   -6.5618   16.0087 C   0  0  0  0  0  0  0  0  0  0  0  0
   10.8583   -2.6527   20.7222 C   0  0  0  0  0  0  0  0  0  0  0  0
   10.6412   -3.5089   21.7936 C   0  0  0  0  0  0  0  0  0  0  0  0
   10.4972   -3.8968   24.1589 C   0  0  0  0  0  0  0  0  0  0  0  0
    5.9260   -8.2736   16.5517 C   0  0  0  0  0  0  0  0  0  0  0  0
    3.8816   -9.1166   17.2493 C   0  0  0  0  0  0  0  0  0  0  0  0
   10.1297   -1.6575   23.2324 C   0  0  0  0  0  0  0  0  0  0  0  0
    9.4684   -1.6929   26.7263 F   0  0  0  0  0  0  0  0  0  0  0  0
    7.7963   -7.7906   17.9837 C   0  0  0  0  0  0  0  0  0  0  0  0
   10.5884   -3.0725   16.7902 O   0  0  0  0  0  0  0  0  0  0  0  0
   10.4323   -5.3494   20.3516 C   0  0  0  0  0  0  0  0  0  0  0  0
    7.1156   -7.5454   16.8218 C   0  0  0  0  0  0  0  0  0  0  0  0
   10.3885   -4.4388   19.2773 C   0  0  0  0  0  0  0  0  0  0  0  0
    4.5160   -9.3822   15.0841 C   0  0  0  0  0  0  0  0  0  0  0  0
  1  3  4  0
  1 24  4  0
  2  6  4  0
  2 15  4  0
  3  5  4  0
  3  6  4  0
  4 21  4  0
  4 29  4  0
  5 15  4  0
  5 28  1  0
  6 16  4  0
  7 18  4  0
  7 26  4  0
  8 18  1  0
  8 19  4  0
  8 22  4  0
  9 12  4  0
  9 19  4  0
 10 12  4  0
 10 22  4  0
 11 20  4  0
 11 21  4  0
 12 23  1  0
 13 20  4  0
 13 29  4  0
 14 17  4  0
 14 28  4  0
 15 25  2  0
 16 27  4  0
 17 18  4  0
 20 27  1  0
 24 27  4  0
 26 28  4  0
M  END
$$$$

 Created by Python create_sdf_string function

 29 33  0  0  0  0  0  0  0  0999 V2000
    8.8270   -7.0288   18.4251 C   0  0  0  0  0  0  0  0  0  0  0  0
    9.1576   -4.6236   15.8860 O   0  0  0  0  0  0  0  0  0  0  0  0
    9.1509   -5.9108   17.7177 C   0  0  0  0  0  0  0  0  0  0  0  0
    3.6373   -9.5349   16.0582 N   0  0  0  0  0  0  0  0  0  0  0  0
    9.9275   -4.8001   18.0438 N   0  0  0  0  0  0  0  0  0  0  0  0
    8.5908   -5.7425   16.4412 C   0  0  0  0  0  0  0  0  0  0  0  0
   10.5993   -4.8981   21.6068 C   0  0  0  0  0  0  0  0  0  0  0  0
   10.4258   -3.0106   23.0998 C   0  0  0  0  0  0  0  0  0  0  0  0
   10.2148   -3.4364   25.4200 C   0  0  0  0  0  0  0  0  0  0  0  0
    9.7853   -1.1840   24.4927 C   0  0  0  0  0  0  0  0  0  0  0  0
    5.0276   -8.5227   17.5352 C   0  0  0  0  0  0  0  0  0  0  0  0
    9.8187   -2.0895   25.5800 C   0  0  0  0  0  0  0  0  0  0  0  0
    5.6473   -8.7216   15.3158 C   0  0  0  0  0  0  0  0  0  0  0  0
   10.7581   -3.1233   19.4720 N   0  0  0  0  0  0  0  0  0  0  0  0
    9.9571   -4.0573   16.8866 C   0  0  0  0  0  0  0  0  0  0  0  0
    7.6213   -6.5618   16.0087 C   0  0  0  0  0  0  0  0  0  0  0  0
   10.8583   -2.6527   20.7222 C   0  0  0  0  0  0  0  0  0  0  0  0
   10.6412   -3.5089   21.7936 C   0  0  0  0  0  0  0  0  0  0  0  0
   10.4972   -3.8968   24.1589 C   0  0  0  0  0  0  0  0  0  0  0  0
    5.9260   -8.2736   16.5517 C   0  0  0  0  0  0  0  0  0  0  0  0
    3.8816   -9.1166   17.2493 C   0  0  0  0  0  0  0  0  0  0  0  0
   10.1297   -1.6575   23.2324 C   0  0  0  0  0  0  0  0  0  0  0  0
    9.4684   -1.6929   26.7263 F   0  0  0  0  0  0  0  0  0  0  0  0
    7.7963   -7.7906   17.9837 C   0  0  0  0  0  0  0  0  0  0  0  0
   10.5884   -3.0725   16.7902 O   0  0  0  0  0  0  0  0  0  0  0  0
   10.4323   -5.3494   20.3516 C   0  0  0  0  0  0  0  0  0  0  0  0
    7.1156   -7.5454   16.8218 C   0  0  0  0  0  0  0  0  0  0  0  0
   10.3885   -4.4388   19.2773 C   0  0  0  0  0  0  0  0  0  0  0  0
    4.5160   -9.3822   15.0841 C   0  0  0  0  0  0  0  0  0  0  0  0
  1  3  4  0
  1 24  4  0
  2  6  4  0
  2 15  4  0
  3  5  4  0
  3  6  4  0
  4 21  4  0
  4 29  4  0
  5 15  4  0
  5 28  1  0
  6 16  4  0
  7 18  4  0
  7 26  4  0
  8 18  1  0
  8 19  4  0
  8 22  4  0
  9 12  4  0
  9 19  4  0
 10 12  4  0
 10 22  4  0
 11 20  4  0
 11 21  4  0
 12 23  1  0
 13 20  4  0
 13 29  4  0
 14 17  4  0
 14 28  4  0
 15 25  2  0
 16 27  4  0
 17 18  4  0
 20 27  1  0
 24 27  4  0
 26 28  4  0
M  END
$$$$

 Created by Python create_sdf_string function

 29 33  0  0  0  0  0  0  0  0999 V2000
    8.8270   -7.0288   18.4251 C   0  0  0  0  0  0  0  0  0  0  0  0
    9.1576   -4.6236   15.8860 O   0  0  0  0  0  0  0  0  0  0  0  0
    9.1509   -5.9108   17.7177 C   0  0  0  0  0  0  0  0  0  0  0  0
    3.6373   -9.5349   16.0582 N   0  0  0  0  0  0  0  0  0  0  0  0
    9.9275   -4.8001   18.0438 N   0  0  0  0  0  0  0  0  0  0  0  0
    8.5908   -5.7425   16.4412 C   0  0  0  0  0  0  0  0  0  0  0  0
   10.5993   -4.8981   21.6068 C   0  0  0  0  0  0  0  0  0  0  0  0
   10.4258   -3.0106   23.0998 C   0  0  0  0  0  0  0  0  0  0  0  0
   10.2148   -3.4364   25.4200 C   0  0  0  0  0  0  0  0  0  0  0  0
    9.7853   -1.1840   24.4927 C   0  0  0  0  0  0  0  0  0  0  0  0
    5.0276   -8.5227   17.5352 C   0  0  0  0  0  0  0  0  0  0  0  0
    9.8187   -2.0895   25.5800 C   0  0  0  0  0  0  0  0  0  0  0  0
    5.6473   -8.7216   15.3158 C   0  0  0  0  0  0  0  0  0  0  0  0
   10.7581   -3.1233   19.4720 N   0  0  0  0  0  0  0  0  0  0  0  0
    9.9571   -4.0573   16.8866 C   0  0  0  0  0  0  0  0  0  0  0  0
    7.6213   -6.5618   16.0087 C   0  0  0  0  0  0  0  0  0  0  0  0
   10.8583   -2.6527   20.7222 C   0  0  0  0  0  0  0  0  0  0  0  0
   10.6412   -3.5089   21.7936 C   0  0  0  0  0  0  0  0  0  0  0  0
   10.4972   -3.8968   24.1589 C   0  0  0  0  0  0  0  0  0  0  0  0
    5.9260   -8.2736   16.5517 C   0  0  0  0  0  0  0  0  0  0  0  0
    3.8816   -9.1166   17.2493 C   0  0  0  0  0  0  0  0  0  0  0  0
   10.1297   -1.6575   23.2324 C   0  0  0  0  0  0  0  0  0  0  0  0
    9.4684   -1.6929   26.7263 F   0  0  0  0  0  0  0  0  0  0  0  0
    7.7963   -7.7906   17.9837 C   0  0  0  0  0  0  0  0  0  0  0  0
   10.5884   -3.0725   16.7902 O   0  0  0  0  0  0  0  0  0  0  0  0
   10.4323   -5.3494   20.3516 C   0  0  0  0  0  0  0  0  0  0  0  0
    7.1156   -7.5454   16.8218 C   0  0  0  0  0  0  0  0  0  0  0  0
   10.3885   -4.4388   19.2773 C   0  0  0  0  0  0  0  0  0  0  0  0
    4.5160   -9.3822   15.0841 C   0  0  0  0  0  0  0  0  0  0  0  0
  1  3  4  0
  1 24  4  0
  2  6  4  0
  2 15  4  0
  3  5  4  0
  3  6  4  0
  4 21  4  0
  4 29  4  0
  5 15  4  0
  5 28  1  0
  6 16  4  0
  7 18  4  0
  7 26  4  0
  8 18  1  0
  8 19  4  0
  8 22  4  0
  9 12  4  0
  9 19  4  0
 10 12  4  0
 10 22  4  0
 11 20  4  0
 11 21  4  0
 12 23  1  0
 13 20  4  0
 13 29  4  0
 14 17  4  0
 14 28  4  0
 15 25  2  0
 16 27  4  0
 17 18  4  0
 20 27  1  0
 24 27  4  0
 26 28  4  0
M  END
$$$$

 Created by Python create_sdf_string function

 29 33  0  0  0  0  0  0  0  0999 V2000
    8.8270   -7.0288   18.4251 C   0  0  0  0  0  0  0  0  0  0  0  0
    9.1576   -4.6236   15.8860 O   0  0  0  0  0  0  0  0  0  0  0  0
    9.1509   -5.9108   17.7177 C   0  0  0  0  0  0  0  0  0  0  0  0
    3.6373   -9.5349   16.0582 N   0  0  0  0  0  0  0  0  0  0  0  0
    9.9275   -4.8001   18.0438 N   0  0  0  0  0  0  0  0  0  0  0  0
    8.5908   -5.7425   16.4412 C   0  0  0  0  0  0  0  0  0  0  0  0
   10.5993   -4.8981   21.6068 C   0  0  0  0  0  0  0  0  0  0  0  0
   10.4258   -3.0106   23.0998 C   0  0  0  0  0  0  0  0  0  0  0  0
   10.2148   -3.4364   25.4200 C   0  0  0  0  0  0  0  0  0  0  0  0
    9.7853   -1.1840   24.4927 C   0  0  0  0  0  0  0  0  0  0  0  0
    5.0276   -8.5227   17.5352 C   0  0  0  0  0  0  0  0  0  0  0  0
    9.8187   -2.0895   25.5800 C   0  0  0  0  0  0  0  0  0  0  0  0
    5.6473   -8.7216   15.3158 C   0  0  0  0  0  0  0  0  0  0  0  0
   10.7581   -3.1233   19.4720 N   0  0  0  0  0  0  0  0  0  0  0  0
    9.9571   -4.0573   16.8866 C   0  0  0  0  0  0  0  0  0  0  0  0
    7.6213   -6.5618   16.0087 C   0  0  0  0  0  0  0  0  0  0  0  0
   10.8583   -2.6527   20.7222 C   0  0  0  0  0  0  0  0  0  0  0  0
   10.6412   -3.5089   21.7936 C   0  0  0  0  0  0  0  0  0  0  0  0
   10.4972   -3.8968   24.1589 C   0  0  0  0  0  0  0  0  0  0  0  0
    5.9260   -8.2736   16.5517 C   0  0  0  0  0  0  0  0  0  0  0  0
    3.8816   -9.1166   17.2493 C   0  0  0  0  0  0  0  0  0  0  0  0
   10.1297   -1.6575   23.2324 C   0  0  0  0  0  0  0  0  0  0  0  0
    9.4684   -1.6929   26.7263 F   0  0  0  0  0  0  0  0  0  0  0  0
    7.7963   -7.7906   17.9837 C   0  0  0  0  0  0  0  0  0  0  0  0
   10.5884   -3.0725   16.7902 O   0  0  0  0  0  0  0  0  0  0  0  0
   10.4323   -5.3494   20.3516 C   0  0  0  0  0  0  0  0  0  0  0  0
    7.1156   -7.5454   16.8218 C   0  0  0  0  0  0  0  0  0  0  0  0
   10.3885   -4.4388   19.2773 C   0  0  0  0  0  0  0  0  0  0  0  0
    4.5160   -9.3822   15.0841 C   0  0  0  0  0  0  0  0  0  0  0  0
  1  3  4  0
  1 24  4  0
  2  6  4  0
  2 15  4  0
  3  5  4  0
  3  6  4  0
  4 21  4  0
  4 29  4  0
  5 15  4  0
  5 28  1  0
  6 16  4  0
  7 18  4  0
  7 26  4  0
  8 18  1  0
  8 19  4  0
  8 22  4  0
  9 12  4  0
  9 19  4  0
 10 12  4  0
 10 22  4  0
 11 20  4  0
 11 21  4  0
 12 23  1  0
 13 20  4  0
 13 29  4  0
 14 17  4  0
 14 28  4  0
 15 25  2  0
 16 27  4  0
 17 18  4  0
 20 27  1  0
 24 27  4  0
 26 28  4  0
M  END
$$$$

 Created by Python create_sdf_string function

 29 33  0  0  0  0  0  0  0  0999 V2000
    8.8270   -7.0288   18.4251 C   0  0  0  0  0  0  0  0  0  0  0  0
    9.1576   -4.6236   15.8860 O   0  0  0  0  0  0  0  0  0  0  0  0
    9.1509   -5.9108   17.7177 C   0  0  0  0  0  0  0  0  0  0  0  0
    3.6373   -9.5349   16.0582 N   0  0  0  0  0  0  0  0  0  0  0  0
    9.9275   -4.8001   18.0438 N   0  0  0  0  0  0  0  0  0  0  0  0
    8.5908   -5.7425   16.4412 C   0  0  0  0  0  0  0  0  0  0  0  0
   10.5993   -4.8981   21.6068 C   0  0  0  0  0  0  0  0  0  0  0  0
   10.4258   -3.0106   23.0998 C   0  0  0  0  0  0  0  0  0  0  0  0
   10.2148   -3.4364   25.4200 C   0  0  0  0  0  0  0  0  0  0  0  0
    9.7853   -1.1840   24.4927 C   0  0  0  0  0  0  0  0  0  0  0  0
    5.0276   -8.5227   17.5352 C   0  0  0  0  0  0  0  0  0  0  0  0
    9.8187   -2.0895   25.5800 C   0  0  0  0  0  0  0  0  0  0  0  0
    5.6473   -8.7216   15.3158 C   0  0  0  0  0  0  0  0  0  0  0  0
   10.7581   -3.1233   19.4720 N   0  0  0  0  0  0  0  0  0  0  0  0
    9.9571   -4.0573   16.8866 C   0  0  0  0  0  0  0  0  0  0  0  0
    7.6213   -6.5618   16.0087 C   0  0  0  0  0  0  0  0  0  0  0  0
   10.8583   -2.6527   20.7222 C   0  0  0  0  0  0  0  0  0  0  0  0
   10.6412   -3.5089   21.7936 C   0  0  0  0  0  0  0  0  0  0  0  0
   10.4972   -3.8968   24.1589 C   0  0  0  0  0  0  0  0  0  0  0  0
    5.9260   -8.2736   16.5517 C   0  0  0  0  0  0  0  0  0  0  0  0
    3.8816   -9.1166   17.2493 C   0  0  0  0  0  0  0  0  0  0  0  0
   10.1297   -1.6575   23.2324 C   0  0  0  0  0  0  0  0  0  0  0  0
    9.4684   -1.6929   26.7263 F   0  0  0  0  0  0  0  0  0  0  0  0
    7.7963   -7.7906   17.9837 C   0  0  0  0  0  0  0  0  0  0  0  0
   10.5884   -3.0725   16.7902 O   0  0  0  0  0  0  0  0  0  0  0  0
   10.4323   -5.3494   20.3516 C   0  0  0  0  0  0  0  0  0  0  0  0
    7.1156   -7.5454   16.8218 C   0  0  0  0  0  0  0  0  0  0  0  0
   10.3885   -4.4388   19.2773 C   0  0  0  0  0  0  0  0  0  0  0  0
    4.5160   -9.3822   15.0841 C   0  0  0  0  0  0  0  0  0  0  0  0
  1  3  4  0
  1 24  4  0
  2  6  4  0
  2 15  4  0
  3  5  4  0
  3  6  4  0
  4 21  4  0
  4 29  4  0
  5 15  4  0
  5 28  1  0
  6 16  4  0
  7 18  4  0
  7 26  4  0
  8 18  1  0
  8 19  4  0
  8 22  4  0
  9 12  4  0
  9 19  4  0
 10 12  4  0
 10 22  4  0
 11 20  4  0
 11 21  4  0
 12 23  1  0
 13 20  4  0
 13 29  4  0
 14 17  4  0
 14 28  4  0
 15 25  2  0
 16 27  4  0
 17 18  4  0
 20 27  1  0
 24 27  4  0
 26 28  4  0
M  END
$$$$

 Created by Python create_sdf_string function

 29 33  0  0  0  0  0  0  0  0999 V2000
    8.8270   -7.0288   18.4251 C   0  0  0  0  0  0  0  0  0  0  0  0
    9.1576   -4.6236   15.8860 O   0  0  0  0  0  0  0  0  0  0  0  0
    9.1509   -5.9108   17.7177 C   0  0  0  0  0  0  0  0  0  0  0  0
    3.6373   -9.5349   16.0582 N   0  0  0  0  0  0  0  0  0  0  0  0
    9.9275   -4.8001   18.0438 N   0  0  0  0  0  0  0  0  0  0  0  0
    8.5908   -5.7425   16.4412 C   0  0  0  0  0  0  0  0  0  0  0  0
   10.5993   -4.8981   21.6068 C   0  0  0  0  0  0  0  0  0  0  0  0
   10.4258   -3.0106   23.0998 C   0  0  0  0  0  0  0  0  0  0  0  0
   10.2148   -3.4364   25.4200 C   0  0  0  0  0  0  0  0  0  0  0  0
    9.7853   -1.1840   24.4927 C   0  0  0  0  0  0  0  0  0  0  0  0
    5.0276   -8.5227   17.5352 C   0  0  0  0  0  0  0  0  0  0  0  0
    9.8187   -2.0895   25.5800 C   0  0  0  0  0  0  0  0  0  0  0  0
    5.6473   -8.7216   15.3158 C   0  0  0  0  0  0  0  0  0  0  0  0
   10.7581   -3.1233   19.4720 N   0  0  0  0  0  0  0  0  0  0  0  0
    9.9571   -4.0573   16.8866 C   0  0  0  0  0  0  0  0  0  0  0  0
    7.6213   -6.5618   16.0087 C   0  0  0  0  0  0  0  0  0  0  0  0
   10.8583   -2.6527   20.7222 C   0  0  0  0  0  0  0  0  0  0  0  0
   10.6412   -3.5089   21.7936 C   0  0  0  0  0  0  0  0  0  0  0  0
   10.4972   -3.8968   24.1589 C   0  0  0  0  0  0  0  0  0  0  0  0
    5.9260   -8.2736   16.5517 C   0  0  0  0  0  0  0  0  0  0  0  0
    3.8816   -9.1166   17.2493 C   0  0  0  0  0  0  0  0  0  0  0  0
   10.1297   -1.6575   23.2324 C   0  0  0  0  0  0  0  0  0  0  0  0
    9.4684   -1.6929   26.7263 F   0  0  0  0  0  0  0  0  0  0  0  0
    7.7963   -7.7906   17.9837 C   0  0  0  0  0  0  0  0  0  0  0  0
   10.5884   -3.0725   16.7902 O   0  0  0  0  0  0  0  0  0  0  0  0
   10.4323   -5.3494   20.3516 C   0  0  0  0  0  0  0  0  0  0  0  0
    7.1156   -7.5454   16.8218 C   0  0  0  0  0  0  0  0  0  0  0  0
   10.3885   -4.4388   19.2773 C   0  0  0  0  0  0  0  0  0  0  0  0
    4.5160   -9.3822   15.0841 C   0  0  0  0  0  0  0  0  0  0  0  0
  1  3  4  0
  1 24  4  0
  2  6  4  0
  2 15  4  0
  3  5  4  0
  3  6  4  0
  4 21  4  0
  4 29  4  0
  5 15  4  0
  5 28  1  0
  6 16  4  0
  7 18  4  0
  7 26  4  0
  8 18  1  0
  8 19  4  0
  8 22  4  0
  9 12  4  0
  9 19  4  0
 10 12  4  0
 10 22  4  0
 11 20  4  0
 11 21  4  0
 12 23  1  0
 13 20  4  0
 13 29  4  0
 14 17  4  0
 14 28  4  0
 15 25  2  0
 16 27  4  0
 17 18  4  0
 20 27  1  0
 24 27  4  0
 26 28  4  0
M  END
$$$$

 Created by Python create_sdf_string function

 29 33  0  0  0  0  0  0  0  0999 V2000
    8.8270   -7.0288   18.4251 C   0  0  0  0  0  0  0  0  0  0  0  0
    9.1576   -4.6236   15.8860 O   0  0  0  0  0  0  0  0  0  0  0  0
    9.1509   -5.9108   17.7177 C   0  0  0  0  0  0  0  0  0  0  0  0
    3.6373   -9.5349   16.0582 N   0  0  0  0  0  0  0  0  0  0  0  0
    9.9275   -4.8001   18.0438 N   0  0  0  0  0  0  0  0  0  0  0  0
    8.5908   -5.7425   16.4412 C   0  0  0  0  0  0  0  0  0  0  0  0
   10.5993   -4.8981   21.6068 C   0  0  0  0  0  0  0  0  0  0  0  0
   10.4258   -3.0106   23.0998 C   0  0  0  0  0  0  0  0  0  0  0  0
   10.2148   -3.4364   25.4200 C   0  0  0  0  0  0  0  0  0  0  0  0
    9.7853   -1.1840   24.4927 C   0  0  0  0  0  0  0  0  0  0  0  0
    5.0276   -8.5227   17.5352 C   0  0  0  0  0  0  0  0  0  0  0  0
    9.8187   -2.0895   25.5800 C   0  0  0  0  0  0  0  0  0  0  0  0
    5.6473   -8.7216   15.3158 C   0  0  0  0  0  0  0  0  0  0  0  0
   10.7581   -3.1233   19.4720 N   0  0  0  0  0  0  0  0  0  0  0  0
    9.9571   -4.0573   16.8866 C   0  0  0  0  0  0  0  0  0  0  0  0
    7.6213   -6.5618   16.0087 C   0  0  0  0  0  0  0  0  0  0  0  0
   10.8583   -2.6527   20.7222 C   0  0  0  0  0  0  0  0  0  0  0  0
   10.6412   -3.5089   21.7936 C   0  0  0  0  0  0  0  0  0  0  0  0
   10.4972   -3.8968   24.1589 C   0  0  0  0  0  0  0  0  0  0  0  0
    5.9260   -8.2736   16.5517 C   0  0  0  0  0  0  0  0  0  0  0  0
    3.8816   -9.1166   17.2493 C   0  0  0  0  0  0  0  0  0  0  0  0
   10.1297   -1.6575   23.2324 C   0  0  0  0  0  0  0  0  0  0  0  0
    9.4684   -1.6929   26.7263 F   0  0  0  0  0  0  0  0  0  0  0  0
    7.7963   -7.7906   17.9837 C   0  0  0  0  0  0  0  0  0  0  0  0
   10.5884   -3.0725   16.7902 O   0  0  0  0  0  0  0  0  0  0  0  0
   10.4323   -5.3494   20.3516 C   0  0  0  0  0  0  0  0  0  0  0  0
    7.1156   -7.5454   16.8218 C   0  0  0  0  0  0  0  0  0  0  0  0
   10.3885   -4.4388   19.2773 C   0  0  0  0  0  0  0  0  0  0  0  0
    4.5160   -9.3822   15.0841 C   0  0  0  0  0  0  0  0  0  0  0  0
  1  3  4  0
  1 24  4  0
  2  6  4  0
  2 15  4  0
  3  5  4  0
  3  6  4  0
  4 21  4  0
  4 29  4  0
  5 15  4  0
  5 28  1  0
  6 16  4  0
  7 18  4  0
  7 26  4  0
  8 18  1  0
  8 19  4  0
  8 22  4  0
  9 12  4  0
  9 19  4  0
 10 12  4  0
 10 22  4  0
 11 20  4  0
 11 21  4  0
 12 23  1  0
 13 20  4  0
 13 29  4  0
 14 17  4  0
 14 28  4  0
 15 25  2  0
 16 27  4  0
 17 18  4  0
 20 27  1  0
 24 27  4  0
 26 28  4  0
M  END
$$$$

 Created by Python create_sdf_string function

 29 33  0  0  0  0  0  0  0  0999 V2000
    8.8270   -7.0288   18.4251 C   0  0  0  0  0  0  0  0  0  0  0  0
    9.1576   -4.6236   15.8860 O   0  0  0  0  0  0  0  0  0  0  0  0
    9.1509   -5.9108   17.7177 C   0  0  0  0  0  0  0  0  0  0  0  0
    3.6373   -9.5349   16.0582 N   0  0  0  0  0  0  0  0  0  0  0  0
    9.9275   -4.8001   18.0438 N   0  0  0  0  0  0  0  0  0  0  0  0
    8.5908   -5.7425   16.4412 C   0  0  0  0  0  0  0  0  0  0  0  0
   10.5993   -4.8981   21.6068 C   0  0  0  0  0  0  0  0  0  0  0  0
   10.4258   -3.0106   23.0998 C   0  0  0  0  0  0  0  0  0  0  0  0
   10.2148   -3.4364   25.4200 C   0  0  0  0  0  0  0  0  0  0  0  0
    9.7853   -1.1840   24.4927 C   0  0  0  0  0  0  0  0  0  0  0  0
    5.0276   -8.5227   17.5352 C   0  0  0  0  0  0  0  0  0  0  0  0
    9.8187   -2.0895   25.5800 C   0  0  0  0  0  0  0  0  0  0  0  0
    5.6473   -8.7216   15.3158 C   0  0  0  0  0  0  0  0  0  0  0  0
   10.7581   -3.1233   19.4720 N   0  0  0  0  0  0  0  0  0  0  0  0
    9.9571   -4.0573   16.8866 C   0  0  0  0  0  0  0  0  0  0  0  0
    7.6213   -6.5618   16.0087 C   0  0  0  0  0  0  0  0  0  0  0  0
   10.8583   -2.6527   20.7222 C   0  0  0  0  0  0  0  0  0  0  0  0
   10.6412   -3.5089   21.7936 C   0  0  0  0  0  0  0  0  0  0  0  0
   10.4972   -3.8968   24.1589 C   0  0  0  0  0  0  0  0  0  0  0  0
    5.9260   -8.2736   16.5517 C   0  0  0  0  0  0  0  0  0  0  0  0
    3.8816   -9.1166   17.2493 C   0  0  0  0  0  0  0  0  0  0  0  0
   10.1297   -1.6575   23.2324 C   0  0  0  0  0  0  0  0  0  0  0  0
    9.4684   -1.6929   26.7263 F   0  0  0  0  0  0  0  0  0  0  0  0
    7.7963   -7.7906   17.9837 C   0  0  0  0  0  0  0  0  0  0  0  0
   10.5884   -3.0725   16.7902 O   0  0  0  0  0  0  0  0  0  0  0  0
   10.4323   -5.3494   20.3516 C   0  0  0  0  0  0  0  0  0  0  0  0
    7.1156   -7.5454   16.8218 C   0  0  0  0  0  0  0  0  0  0  0  0
   10.3885   -4.4388   19.2773 C   0  0  0  0  0  0  0  0  0  0  0  0
    4.5160   -9.3822   15.0841 C   0  0  0  0  0  0  0  0  0  0  0  0
  1  3  4  0
  1 24  4  0
  2  6  4  0
  2 15  4  0
  3  5  4  0
  3  6  4  0
  4 21  4  0
  4 29  4  0
  5 15  4  0
  5 28  1  0
  6 16  4  0
  7 18  4  0
  7 26  4  0
  8 18  1  0
  8 19  4  0
  8 22  4  0
  9 12  4  0
  9 19  4  0
 10 12  4  0
 10 22  4  0
 11 20  4  0
 11 21  4  0
 12 23  1  0
 13 20  4  0
 13 29  4  0
 14 17  4  0
 14 28  4  0
 15 25  2  0
 16 27  4  0
 17 18  4  0
 20 27  1  0
 24 27  4  0
 26 28  4  0
M  END
$$$$

 Created by Python create_sdf_string function

 29 33  0  0  0  0  0  0  0  0999 V2000
    8.8270   -7.0288   18.4251 C   0  0  0  0  0  0  0  0  0  0  0  0
    9.1576   -4.6236   15.8860 O   0  0  0  0  0  0  0  0  0  0  0  0
    9.1509   -5.9108   17.7177 C   0  0  0  0  0  0  0  0  0  0  0  0
    3.6373   -9.5349   16.0582 N   0  0  0  0  0  0  0  0  0  0  0  0
    9.9275   -4.8001   18.0438 N   0  0  0  0  0  0  0  0  0  0  0  0
    8.5908   -5.7425   16.4412 C   0  0  0  0  0  0  0  0  0  0  0  0
   10.5993   -4.8981   21.6068 C   0  0  0  0  0  0  0  0  0  0  0  0
   10.4258   -3.0106   23.0998 C   0  0  0  0  0  0  0  0  0  0  0  0
   10.2148   -3.4364   25.4200 C   0  0  0  0  0  0  0  0  0  0  0  0
    9.7853   -1.1840   24.4927 C   0  0  0  0  0  0  0  0  0  0  0  0
    5.0276   -8.5227   17.5352 C   0  0  0  0  0  0  0  0  0  0  0  0
    9.8187   -2.0895   25.5800 C   0  0  0  0  0  0  0  0  0  0  0  0
    5.6473   -8.7216   15.3158 C   0  0  0  0  0  0  0  0  0  0  0  0
   10.7581   -3.1233   19.4720 N   0  0  0  0  0  0  0  0  0  0  0  0
    9.9571   -4.0573   16.8866 C   0  0  0  0  0  0  0  0  0  0  0  0
    7.6213   -6.5618   16.0087 C   0  0  0  0  0  0  0  0  0  0  0  0
   10.8583   -2.6527   20.7222 C   0  0  0  0  0  0  0  0  0  0  0  0
   10.6412   -3.5089   21.7936 C   0  0  0  0  0  0  0  0  0  0  0  0
   10.4972   -3.8968   24.1589 C   0  0  0  0  0  0  0  0  0  0  0  0
    5.9260   -8.2736   16.5517 C   0  0  0  0  0  0  0  0  0  0  0  0
    3.8816   -9.1166   17.2493 C   0  0  0  0  0  0  0  0  0  0  0  0
   10.1297   -1.6575   23.2324 C   0  0  0  0  0  0  0  0  0  0  0  0
    9.4684   -1.6929   26.7263 F   0  0  0  0  0  0  0  0  0  0  0  0
    7.7963   -7.7906   17.9837 C   0  0  0  0  0  0  0  0  0  0  0  0
   10.5884   -3.0725   16.7902 O   0  0  0  0  0  0  0  0  0  0  0  0
   10.4323   -5.3494   20.3516 C   0  0  0  0  0  0  0  0  0  0  0  0
    7.1156   -7.5454   16.8218 C   0  0  0  0  0  0  0  0  0  0  0  0
   10.3885   -4.4388   19.2773 C   0  0  0  0  0  0  0  0  0  0  0  0
    4.5160   -9.3822   15.0841 C   0  0  0  0  0  0  0  0  0  0  0  0
  1  3  4  0
  1 24  4  0
  2  6  4  0
  2 15  4  0
  3  5  4  0
  3  6  4  0
  4 21  4  0
  4 29  4  0
  5 15  4  0
  5 28  1  0
  6 16  4  0
  7 18  4  0
  7 26  4  0
  8 18  1  0
  8 19  4  0
  8 22  4  0
  9 12  4  0
  9 19  4  0
 10 12  4  0
 10 22  4  0
 11 20  4  0
 11 21  4  0
 12 23  1  0
 13 20  4  0
 13 29  4  0
 14 17  4  0
 14 28  4  0
 15 25  2  0
 16 27  4  0
 17 18  4  0
 20 27  1  0
 24 27  4  0
 26 28  4  0
M  END
$$$$

 Created by Python create_sdf_string function

 29 33  0  0  0  0  0  0  0  0999 V2000
    8.8270   -7.0288   18.4251 C   0  0  0  0  0  0  0  0  0  0  0  0
    9.1576   -4.6236   15.8860 O   0  0  0  0  0  0  0  0  0  0  0  0
    9.1509   -5.9108   17.7177 C   0  0  0  0  0  0  0  0  0  0  0  0
    3.6373   -9.5349   16.0582 N   0  0  0  0  0  0  0  0  0  0  0  0
    9.9275   -4.8001   18.0438 N   0  0  0  0  0  0  0  0  0  0  0  0
    8.5908   -5.7425   16.4412 C   0  0  0  0  0  0  0  0  0  0  0  0
   10.5993   -4.8981   21.6068 C   0  0  0  0  0  0  0  0  0  0  0  0
   10.4258   -3.0106   23.0998 C   0  0  0  0  0  0  0  0  0  0  0  0
   10.2148   -3.4364   25.4200 C   0  0  0  0  0  0  0  0  0  0  0  0
    9.7853   -1.1840   24.4927 C   0  0  0  0  0  0  0  0  0  0  0  0
    5.0276   -8.5227   17.5352 C   0  0  0  0  0  0  0  0  0  0  0  0
    9.8187   -2.0895   25.5800 C   0  0  0  0  0  0  0  0  0  0  0  0
    5.6473   -8.7216   15.3158 C   0  0  0  0  0  0  0  0  0  0  0  0
   10.7581   -3.1233   19.4720 N   0  0  0  0  0  0  0  0  0  0  0  0
    9.9571   -4.0573   16.8866 C   0  0  0  0  0  0  0  0  0  0  0  0
    7.6213   -6.5618   16.0087 C   0  0  0  0  0  0  0  0  0  0  0  0
   10.8583   -2.6527   20.7222 C   0  0  0  0  0  0  0  0  0  0  0  0
   10.6412   -3.5089   21.7936 C   0  0  0  0  0  0  0  0  0  0  0  0
   10.4972   -3.8968   24.1589 C   0  0  0  0  0  0  0  0  0  0  0  0
    5.9260   -8.2736   16.5517 C   0  0  0  0  0  0  0  0  0  0  0  0
    3.8816   -9.1166   17.2493 C   0  0  0  0  0  0  0  0  0  0  0  0
   10.1297   -1.6575   23.2324 C   0  0  0  0  0  0  0  0  0  0  0  0
    9.4684   -1.6929   26.7263 F   0  0  0  0  0  0  0  0  0  0  0  0
    7.7963   -7.7906   17.9837 C   0  0  0  0  0  0  0  0  0  0  0  0
   10.5884   -3.0725   16.7902 O   0  0  0  0  0  0  0  0  0  0  0  0
   10.4323   -5.3494   20.3516 C   0  0  0  0  0  0  0  0  0  0  0  0
    7.1156   -7.5454   16.8218 C   0  0  0  0  0  0  0  0  0  0  0  0
   10.3885   -4.4388   19.2773 C   0  0  0  0  0  0  0  0  0  0  0  0
    4.5160   -9.3822   15.0841 C   0  0  0  0  0  0  0  0  0  0  0  0
  1  3  4  0
  1 24  4  0
  2  6  4  0
  2 15  4  0
  3  5  4  0
  3  6  4  0
  4 21  4  0
  4 29  4  0
  5 15  4  0
  5 28  1  0
  6 16  4  0
  7 18  4  0
  7 26  4  0
  8 18  1  0
  8 19  4  0
  8 22  4  0
  9 12  4  0
  9 19  4  0
 10 12  4  0
 10 22  4  0
 11 20  4  0
 11 21  4  0
 12 23  1  0
 13 20  4  0
 13 29  4  0
 14 17  4  0
 14 28  4  0
 15 25  2  0
 16 27  4  0
 17 18  4  0
 20 27  1  0
 24 27  4  0
 26 28  4  0
M  END
$$$$

 Created by Python create_sdf_string function

 29 33  0  0  0  0  0  0  0  0999 V2000
    8.8270   -7.0288   18.4251 C   0  0  0  0  0  0  0  0  0  0  0  0
    9.1576   -4.6236   15.8860 O   0  0  0  0  0  0  0  0  0  0  0  0
    9.1509   -5.9108   17.7177 C   0  0  0  0  0  0  0  0  0  0  0  0
    3.6373   -9.5349   16.0582 N   0  0  0  0  0  0  0  0  0  0  0  0
    9.9275   -4.8001   18.0438 N   0  0  0  0  0  0  0  0  0  0  0  0
    8.5908   -5.7425   16.4412 C   0  0  0  0  0  0  0  0  0  0  0  0
   10.5993   -4.8981   21.6068 C   0  0  0  0  0  0  0  0  0  0  0  0
   10.4258   -3.0106   23.0998 C   0  0  0  0  0  0  0  0  0  0  0  0
   10.2148   -3.4364   25.4200 C   0  0  0  0  0  0  0  0  0  0  0  0
    9.7853   -1.1840   24.4927 C   0  0  0  0  0  0  0  0  0  0  0  0
    5.0276   -8.5227   17.5352 C   0  0  0  0  0  0  0  0  0  0  0  0
    9.8187   -2.0895   25.5800 C   0  0  0  0  0  0  0  0  0  0  0  0
    5.6473   -8.7216   15.3158 C   0  0  0  0  0  0  0  0  0  0  0  0
   10.7581   -3.1233   19.4720 N   0  0  0  0  0  0  0  0  0  0  0  0
    9.9571   -4.0573   16.8866 C   0  0  0  0  0  0  0  0  0  0  0  0
    7.6213   -6.5618   16.0087 C   0  0  0  0  0  0  0  0  0  0  0  0
   10.8583   -2.6527   20.7222 C   0  0  0  0  0  0  0  0  0  0  0  0
   10.6412   -3.5089   21.7936 C   0  0  0  0  0  0  0  0  0  0  0  0
   10.4972   -3.8968   24.1589 C   0  0  0  0  0  0  0  0  0  0  0  0
    5.9260   -8.2736   16.5517 C   0  0  0  0  0  0  0  0  0  0  0  0
    3.8816   -9.1166   17.2493 C   0  0  0  0  0  0  0  0  0  0  0  0
   10.1297   -1.6575   23.2324 C   0  0  0  0  0  0  0  0  0  0  0  0
    9.4684   -1.6929   26.7263 F   0  0  0  0  0  0  0  0  0  0  0  0
    7.7963   -7.7906   17.9837 C   0  0  0  0  0  0  0  0  0  0  0  0
   10.5884   -3.0725   16.7902 O   0  0  0  0  0  0  0  0  0  0  0  0
   10.4323   -5.3494   20.3516 C   0  0  0  0  0  0  0  0  0  0  0  0
    7.1156   -7.5454   16.8218 C   0  0  0  0  0  0  0  0  0  0  0  0
   10.3885   -4.4388   19.2773 C   0  0  0  0  0  0  0  0  0  0  0  0
    4.5160   -9.3822   15.0841 C   0  0  0  0  0  0  0  0  0  0  0  0
  1  3  4  0
  1 24  4  0
  2  6  4  0
  2 15  4  0
  3  5  4  0
  3  6  4  0
  4 21  4  0
  4 29  4  0
  5 15  4  0
  5 28  1  0
  6 16  4  0
  7 18  4  0
  7 26  4  0
  8 18  1  0
  8 19  4  0
  8 22  4  0
  9 12  4  0
  9 19  4  0
 10 12  4  0
 10 22  4  0
 11 20  4  0
 11 21  4  0
 12 23  1  0
 13 20  4  0
 13 29  4  0
 14 17  4  0
 14 28  4  0
 15 25  2  0
 16 27  4  0
 17 18  4  0
 20 27  1  0
 24 27  4  0
 26 28  4  0
M  END
$$$$

 Created by Python create_sdf_string function

 29 33  0  0  0  0  0  0  0  0999 V2000
    8.8270   -7.0288   18.4251 C   0  0  0  0  0  0  0  0  0  0  0  0
    9.1576   -4.6236   15.8860 O   0  0  0  0  0  0  0  0  0  0  0  0
    9.1509   -5.9108   17.7177 C   0  0  0  0  0  0  0  0  0  0  0  0
    3.6373   -9.5349   16.0582 N   0  0  0  0  0  0  0  0  0  0  0  0
    9.9275   -4.8001   18.0438 N   0  0  0  0  0  0  0  0  0  0  0  0
    8.5908   -5.7425   16.4412 C   0  0  0  0  0  0  0  0  0  0  0  0
   10.5993   -4.8981   21.6068 C   0  0  0  0  0  0  0  0  0  0  0  0
   10.4258   -3.0106   23.0998 C   0  0  0  0  0  0  0  0  0  0  0  0
   10.2148   -3.4364   25.4200 C   0  0  0  0  0  0  0  0  0  0  0  0
    9.7853   -1.1840   24.4927 C   0  0  0  0  0  0  0  0  0  0  0  0
    5.0276   -8.5227   17.5352 C   0  0  0  0  0  0  0  0  0  0  0  0
    9.8187   -2.0895   25.5800 C   0  0  0  0  0  0  0  0  0  0  0  0
    5.6473   -8.7216   15.3158 C   0  0  0  0  0  0  0  0  0  0  0  0
   10.7581   -3.1233   19.4720 N   0  0  0  0  0  0  0  0  0  0  0  0
    9.9571   -4.0573   16.8866 C   0  0  0  0  0  0  0  0  0  0  0  0
    7.6213   -6.5618   16.0087 C   0  0  0  0  0  0  0  0  0  0  0  0
   10.8583   -2.6527   20.7222 C   0  0  0  0  0  0  0  0  0  0  0  0
   10.6412   -3.5089   21.7936 C   0  0  0  0  0  0  0  0  0  0  0  0
   10.4972   -3.8968   24.1589 C   0  0  0  0  0  0  0  0  0  0  0  0
    5.9260   -8.2736   16.5517 C   0  0  0  0  0  0  0  0  0  0  0  0
    3.8816   -9.1166   17.2493 C   0  0  0  0  0  0  0  0  0  0  0  0
   10.1297   -1.6575   23.2324 C   0  0  0  0  0  0  0  0  0  0  0  0
    9.4684   -1.6929   26.7263 F   0  0  0  0  0  0  0  0  0  0  0  0
    7.7963   -7.7906   17.9837 C   0  0  0  0  0  0  0  0  0  0  0  0
   10.5884   -3.0725   16.7902 O   0  0  0  0  0  0  0  0  0  0  0  0
   10.4323   -5.3494   20.3516 C   0  0  0  0  0  0  0  0  0  0  0  0
    7.1156   -7.5454   16.8218 C   0  0  0  0  0  0  0  0  0  0  0  0
   10.3885   -4.4388   19.2773 C   0  0  0  0  0  0  0  0  0  0  0  0
    4.5160   -9.3822   15.0841 C   0  0  0  0  0  0  0  0  0  0  0  0
  1  3  4  0
  1 24  4  0
  2  6  4  0
  2 15  4  0
  3  5  4  0
  3  6  4  0
  4 21  4  0
  4 29  4  0
  5 15  4  0
  5 28  1  0
  6 16  4  0
  7 18  4  0
  7 26  4  0
  8 18  1  0
  8 19  4  0
  8 22  4  0
  9 12  4  0
  9 19  4  0
 10 12  4  0
 10 22  4  0
 11 20  4  0
 11 21  4  0
 12 23  1  0
 13 20  4  0
 13 29  4  0
 14 17  4  0
 14 28  4  0
 15 25  2  0
 16 27  4  0
 17 18  4  0
 20 27  1  0
 24 27  4  0
 26 28  4  0
M  END
$$$$

 Created by Python create_sdf_string function

 29 33  0  0  0  0  0  0  0  0999 V2000
    8.8270   -7.0288   18.4251 C   0  0  0  0  0  0  0  0  0  0  0  0
    9.1576   -4.6236   15.8860 O   0  0  0  0  0  0  0  0  0  0  0  0
    9.1509   -5.9108   17.7177 C   0  0  0  0  0  0  0  0  0  0  0  0
    3.6373   -9.5349   16.0582 N   0  0  0  0  0  0  0  0  0  0  0  0
    9.9275   -4.8001   18.0438 N   0  0  0  0  0  0  0  0  0  0  0  0
    8.5908   -5.7425   16.4412 C   0  0  0  0  0  0  0  0  0  0  0  0
   10.5993   -4.8981   21.6068 C   0  0  0  0  0  0  0  0  0  0  0  0
   10.4258   -3.0106   23.0998 C   0  0  0  0  0  0  0  0  0  0  0  0
   10.2148   -3.4364   25.4200 C   0  0  0  0  0  0  0  0  0  0  0  0
    9.7853   -1.1840   24.4927 C   0  0  0  0  0  0  0  0  0  0  0  0
    5.0276   -8.5227   17.5352 C   0  0  0  0  0  0  0  0  0  0  0  0
    9.8187   -2.0895   25.5800 C   0  0  0  0  0  0  0  0  0  0  0  0
    5.6473   -8.7216   15.3158 C   0  0  0  0  0  0  0  0  0  0  0  0
   10.7581   -3.1233   19.4720 N   0  0  0  0  0  0  0  0  0  0  0  0
    9.9571   -4.0573   16.8866 C   0  0  0  0  0  0  0  0  0  0  0  0
    7.6213   -6.5618   16.0087 C   0  0  0  0  0  0  0  0  0  0  0  0
   10.8583   -2.6527   20.7222 C   0  0  0  0  0  0  0  0  0  0  0  0
   10.6412   -3.5089   21.7936 C   0  0  0  0  0  0  0  0  0  0  0  0
   10.4972   -3.8968   24.1589 C   0  0  0  0  0  0  0  0  0  0  0  0
    5.9260   -8.2736   16.5517 C   0  0  0  0  0  0  0  0  0  0  0  0
    3.8816   -9.1166   17.2493 C   0  0  0  0  0  0  0  0  0  0  0  0
   10.1297   -1.6575   23.2324 C   0  0  0  0  0  0  0  0  0  0  0  0
    9.4684   -1.6929   26.7263 F   0  0  0  0  0  0  0  0  0  0  0  0
    7.7963   -7.7906   17.9837 C   0  0  0  0  0  0  0  0  0  0  0  0
   10.5884   -3.0725   16.7902 O   0  0  0  0  0  0  0  0  0  0  0  0
   10.4323   -5.3494   20.3516 C   0  0  0  0  0  0  0  0  0  0  0  0
    7.1156   -7.5454   16.8218 C   0  0  0  0  0  0  0  0  0  0  0  0
   10.3885   -4.4388   19.2773 C   0  0  0  0  0  0  0  0  0  0  0  0
    4.5160   -9.3822   15.0841 C   0  0  0  0  0  0  0  0  0  0  0  0
  1  3  4  0
  1 24  4  0
  2  6  4  0
  2 15  4  0
  3  5  4  0
  3  6  4  0
  4 21  4  0
  4 29  4  0
  5 15  4  0
  5 28  1  0
  6 16  4  0
  7 18  4  0
  7 26  4  0
  8 18  1  0
  8 19  4  0
  8 22  4  0
  9 12  4  0
  9 19  4  0
 10 12  4  0
 10 22  4  0
 11 20  4  0
 11 21  4  0
 12 23  1  0
 13 20  4  0
 13 29  4  0
 14 17  4  0
 14 28  4  0
 15 25  2  0
 16 27  4  0
 17 18  4  0
 20 27  1  0
 24 27  4  0
 26 28  4  0
M  END
$$$$

 Created by Python create_sdf_string function

 29 33  0  0  0  0  0  0  0  0999 V2000
    8.8270   -7.0288   18.4251 C   0  0  0  0  0  0  0  0  0  0  0  0
    9.1576   -4.6236   15.8860 O   0  0  0  0  0  0  0  0  0  0  0  0
    9.1509   -5.9108   17.7177 C   0  0  0  0  0  0  0  0  0  0  0  0
    3.6373   -9.5349   16.0582 N   0  0  0  0  0  0  0  0  0  0  0  0
    9.9275   -4.8001   18.0438 N   0  0  0  0  0  0  0  0  0  0  0  0
    8.5908   -5.7425   16.4412 C   0  0  0  0  0  0  0  0  0  0  0  0
   10.5993   -4.8981   21.6068 C   0  0  0  0  0  0  0  0  0  0  0  0
   10.4258   -3.0106   23.0998 C   0  0  0  0  0  0  0  0  0  0  0  0
   10.2148   -3.4364   25.4200 C   0  0  0  0  0  0  0  0  0  0  0  0
    9.7853   -1.1840   24.4927 C   0  0  0  0  0  0  0  0  0  0  0  0
    5.0276   -8.5227   17.5352 C   0  0  0  0  0  0  0  0  0  0  0  0
    9.8187   -2.0895   25.5800 C   0  0  0  0  0  0  0  0  0  0  0  0
    5.6473   -8.7216   15.3158 C   0  0  0  0  0  0  0  0  0  0  0  0
   10.7581   -3.1233   19.4720 N   0  0  0  0  0  0  0  0  0  0  0  0
    9.9571   -4.0573   16.8866 C   0  0  0  0  0  0  0  0  0  0  0  0
    7.6213   -6.5618   16.0087 C   0  0  0  0  0  0  0  0  0  0  0  0
   10.8583   -2.6527   20.7222 C   0  0  0  0  0  0  0  0  0  0  0  0
   10.6412   -3.5089   21.7936 C   0  0  0  0  0  0  0  0  0  0  0  0
   10.4972   -3.8968   24.1589 C   0  0  0  0  0  0  0  0  0  0  0  0
    5.9260   -8.2736   16.5517 C   0  0  0  0  0  0  0  0  0  0  0  0
    3.8816   -9.1166   17.2493 C   0  0  0  0  0  0  0  0  0  0  0  0
   10.1297   -1.6575   23.2324 C   0  0  0  0  0  0  0  0  0  0  0  0
    9.4684   -1.6929   26.7263 F   0  0  0  0  0  0  0  0  0  0  0  0
    7.7963   -7.7906   17.9837 C   0  0  0  0  0  0  0  0  0  0  0  0
   10.5884   -3.0725   16.7902 O   0  0  0  0  0  0  0  0  0  0  0  0
   10.4323   -5.3494   20.3516 C   0  0  0  0  0  0  0  0  0  0  0  0
    7.1156   -7.5454   16.8218 C   0  0  0  0  0  0  0  0  0  0  0  0
   10.3885   -4.4388   19.2773 C   0  0  0  0  0  0  0  0  0  0  0  0
    4.5160   -9.3822   15.0841 C   0  0  0  0  0  0  0  0  0  0  0  0
  1  3  4  0
  1 24  4  0
  2  6  4  0
  2 15  4  0
  3  5  4  0
  3  6  4  0
  4 21  4  0
  4 29  4  0
  5 15  4  0
  5 28  1  0
  6 16  4  0
  7 18  4  0
  7 26  4  0
  8 18  1  0
  8 19  4  0
  8 22  4  0
  9 12  4  0
  9 19  4  0
 10 12  4  0
 10 22  4  0
 11 20  4  0
 11 21  4  0
 12 23  1  0
 13 20  4  0
 13 29  4  0
 14 17  4  0
 14 28  4  0
 15 25  2  0
 16 27  4  0
 17 18  4  0
 20 27  1  0
 24 27  4  0
 26 28  4  0
M  END
$$$$

 Created by Python create_sdf_string function

 29 33  0  0  0  0  0  0  0  0999 V2000
    8.8270   -7.0288   18.4251 C   0  0  0  0  0  0  0  0  0  0  0  0
    9.1576   -4.6236   15.8860 O   0  0  0  0  0  0  0  0  0  0  0  0
    9.1509   -5.9108   17.7177 C   0  0  0  0  0  0  0  0  0  0  0  0
    3.6373   -9.5349   16.0582 N   0  0  0  0  0  0  0  0  0  0  0  0
    9.9275   -4.8001   18.0438 N   0  0  0  0  0  0  0  0  0  0  0  0
    8.5908   -5.7425   16.4412 C   0  0  0  0  0  0  0  0  0  0  0  0
   10.5993   -4.8981   21.6068 C   0  0  0  0  0  0  0  0  0  0  0  0
   10.4258   -3.0106   23.0998 C   0  0  0  0  0  0  0  0  0  0  0  0
   10.2148   -3.4364   25.4200 C   0  0  0  0  0  0  0  0  0  0  0  0
    9.7853   -1.1840   24.4927 C   0  0  0  0  0  0  0  0  0  0  0  0
    5.0276   -8.5227   17.5352 C   0  0  0  0  0  0  0  0  0  0  0  0
    9.8187   -2.0895   25.5800 C   0  0  0  0  0  0  0  0  0  0  0  0
    5.6473   -8.7216   15.3158 C   0  0  0  0  0  0  0  0  0  0  0  0
   10.7581   -3.1233   19.4720 N   0  0  0  0  0  0  0  0  0  0  0  0
    9.9571   -4.0573   16.8866 C   0  0  0  0  0  0  0  0  0  0  0  0
    7.6213   -6.5618   16.0087 C   0  0  0  0  0  0  0  0  0  0  0  0
   10.8583   -2.6527   20.7222 C   0  0  0  0  0  0  0  0  0  0  0  0
   10.6412   -3.5089   21.7936 C   0  0  0  0  0  0  0  0  0  0  0  0
   10.4972   -3.8968   24.1589 C   0  0  0  0  0  0  0  0  0  0  0  0
    5.9260   -8.2736   16.5517 C   0  0  0  0  0  0  0  0  0  0  0  0
    3.8816   -9.1166   17.2493 C   0  0  0  0  0  0  0  0  0  0  0  0
   10.1297   -1.6575   23.2324 C   0  0  0  0  0  0  0  0  0  0  0  0
    9.4684   -1.6929   26.7263 F   0  0  0  0  0  0  0  0  0  0  0  0
    7.7963   -7.7906   17.9837 C   0  0  0  0  0  0  0  0  0  0  0  0
   10.5884   -3.0725   16.7902 O   0  0  0  0  0  0  0  0  0  0  0  0
   10.4323   -5.3494   20.3516 C   0  0  0  0  0  0  0  0  0  0  0  0
    7.1156   -7.5454   16.8218 C   0  0  0  0  0  0  0  0  0  0  0  0
   10.3885   -4.4388   19.2773 C   0  0  0  0  0  0  0  0  0  0  0  0
    4.5160   -9.3822   15.0841 C   0  0  0  0  0  0  0  0  0  0  0  0
  1  3  4  0
  1 24  4  0
  2  6  4  0
  2 15  4  0
  3  5  4  0
  3  6  4  0
  4 21  4  0
  4 29  4  0
  5 15  4  0
  5 28  1  0
  6 16  4  0
  7 18  4  0
  7 26  4  0
  8 18  1  0
  8 19  4  0
  8 22  4  0
  9 12  4  0
  9 19  4  0
 10 12  4  0
 10 22  4  0
 11 20  4  0
 11 21  4  0
 12 23  1  0
 13 20  4  0
 13 29  4  0
 14 17  4  0
 14 28  4  0
 15 25  2  0
 16 27  4  0
 17 18  4  0
 20 27  1  0
 24 27  4  0
 26 28  4  0
M  END
$$$$

 Created by Python create_sdf_string function

 29 33  0  0  0  0  0  0  0  0999 V2000
    8.8270   -7.0288   18.4251 C   0  0  0  0  0  0  0  0  0  0  0  0
    9.1576   -4.6236   15.8860 O   0  0  0  0  0  0  0  0  0  0  0  0
    9.1509   -5.9108   17.7177 C   0  0  0  0  0  0  0  0  0  0  0  0
    3.6373   -9.5349   16.0582 N   0  0  0  0  0  0  0  0  0  0  0  0
    9.9275   -4.8001   18.0438 N   0  0  0  0  0  0  0  0  0  0  0  0
    8.5908   -5.7425   16.4412 C   0  0  0  0  0  0  0  0  0  0  0  0
   10.5993   -4.8981   21.6068 C   0  0  0  0  0  0  0  0  0  0  0  0
   10.4258   -3.0106   23.0998 C   0  0  0  0  0  0  0  0  0  0  0  0
   10.2148   -3.4364   25.4200 C   0  0  0  0  0  0  0  0  0  0  0  0
    9.7853   -1.1840   24.4927 C   0  0  0  0  0  0  0  0  0  0  0  0
    5.0276   -8.5227   17.5352 C   0  0  0  0  0  0  0  0  0  0  0  0
    9.8187   -2.0895   25.5800 C   0  0  0  0  0  0  0  0  0  0  0  0
    5.6473   -8.7216   15.3158 C   0  0  0  0  0  0  0  0  0  0  0  0
   10.7581   -3.1233   19.4720 N   0  0  0  0  0  0  0  0  0  0  0  0
    9.9571   -4.0573   16.8866 C   0  0  0  0  0  0  0  0  0  0  0  0
    7.6213   -6.5618   16.0087 C   0  0  0  0  0  0  0  0  0  0  0  0
   10.8583   -2.6527   20.7222 C   0  0  0  0  0  0  0  0  0  0  0  0
   10.6412   -3.5089   21.7936 C   0  0  0  0  0  0  0  0  0  0  0  0
   10.4972   -3.8968   24.1589 C   0  0  0  0  0  0  0  0  0  0  0  0
    5.9260   -8.2736   16.5517 C   0  0  0  0  0  0  0  0  0  0  0  0
    3.8816   -9.1166   17.2493 C   0  0  0  0  0  0  0  0  0  0  0  0
   10.1297   -1.6575   23.2324 C   0  0  0  0  0  0  0  0  0  0  0  0
    9.4684   -1.6929   26.7263 F   0  0  0  0  0  0  0  0  0  0  0  0
    7.7963   -7.7906   17.9837 C   0  0  0  0  0  0  0  0  0  0  0  0
   10.5884   -3.0725   16.7902 O   0  0  0  0  0  0  0  0  0  0  0  0
   10.4323   -5.3494   20.3516 C   0  0  0  0  0  0  0  0  0  0  0  0
    7.1156   -7.5454   16.8218 C   0  0  0  0  0  0  0  0  0  0  0  0
   10.3885   -4.4388   19.2773 C   0  0  0  0  0  0  0  0  0  0  0  0
    4.5160   -9.3822   15.0841 C   0  0  0  0  0  0  0  0  0  0  0  0
  1  3  4  0
  1 24  4  0
  2  6  4  0
  2 15  4  0
  3  5  4  0
  3  6  4  0
  4 21  4  0
  4 29  4  0
  5 15  4  0
  5 28  1  0
  6 16  4  0
  7 18  4  0
  7 26  4  0
  8 18  1  0
  8 19  4  0
  8 22  4  0
  9 12  4  0
  9 19  4  0
 10 12  4  0
 10 22  4  0
 11 20  4  0
 11 21  4  0
 12 23  1  0
 13 20  4  0
 13 29  4  0
 14 17  4  0
 14 28  4  0
 15 25  2  0
 16 27  4  0
 17 18  4  0
 20 27  1  0
 24 27  4  0
 26 28  4  0
M  END
$$$$

 Created by Python create_sdf_string function

 29 33  0  0  0  0  0  0  0  0999 V2000
    8.8270   -7.0288   18.4251 C   0  0  0  0  0  0  0  0  0  0  0  0
    9.1576   -4.6236   15.8860 O   0  0  0  0  0  0  0  0  0  0  0  0
    9.1509   -5.9108   17.7177 C   0  0  0  0  0  0  0  0  0  0  0  0
    3.6373   -9.5349   16.0582 N   0  0  0  0  0  0  0  0  0  0  0  0
    9.9275   -4.8001   18.0438 N   0  0  0  0  0  0  0  0  0  0  0  0
    8.5908   -5.7425   16.4412 C   0  0  0  0  0  0  0  0  0  0  0  0
   10.5993   -4.8981   21.6068 C   0  0  0  0  0  0  0  0  0  0  0  0
   10.4258   -3.0106   23.0998 C   0  0  0  0  0  0  0  0  0  0  0  0
   10.2148   -3.4364   25.4200 C   0  0  0  0  0  0  0  0  0  0  0  0
    9.7853   -1.1840   24.4927 C   0  0  0  0  0  0  0  0  0  0  0  0
    5.0276   -8.5227   17.5352 C   0  0  0  0  0  0  0  0  0  0  0  0
    9.8187   -2.0895   25.5800 C   0  0  0  0  0  0  0  0  0  0  0  0
    5.6473   -8.7216   15.3158 C   0  0  0  0  0  0  0  0  0  0  0  0
   10.7581   -3.1233   19.4720 N   0  0  0  0  0  0  0  0  0  0  0  0
    9.9571   -4.0573   16.8866 C   0  0  0  0  0  0  0  0  0  0  0  0
    7.6213   -6.5618   16.0087 C   0  0  0  0  0  0  0  0  0  0  0  0
   10.8583   -2.6527   20.7222 C   0  0  0  0  0  0  0  0  0  0  0  0
   10.6412   -3.5089   21.7936 C   0  0  0  0  0  0  0  0  0  0  0  0
   10.4972   -3.8968   24.1589 C   0  0  0  0  0  0  0  0  0  0  0  0
    5.9260   -8.2736   16.5517 C   0  0  0  0  0  0  0  0  0  0  0  0
    3.8816   -9.1166   17.2493 C   0  0  0  0  0  0  0  0  0  0  0  0
   10.1297   -1.6575   23.2324 C   0  0  0  0  0  0  0  0  0  0  0  0
    9.4684   -1.6929   26.7263 F   0  0  0  0  0  0  0  0  0  0  0  0
    7.7963   -7.7906   17.9837 C   0  0  0  0  0  0  0  0  0  0  0  0
   10.5884   -3.0725   16.7902 O   0  0  0  0  0  0  0  0  0  0  0  0
   10.4323   -5.3494   20.3516 C   0  0  0  0  0  0  0  0  0  0  0  0
    7.1156   -7.5454   16.8218 C   0  0  0  0  0  0  0  0  0  0  0  0
   10.3885   -4.4388   19.2773 C   0  0  0  0  0  0  0  0  0  0  0  0
    4.5160   -9.3822   15.0841 C   0  0  0  0  0  0  0  0  0  0  0  0
  1  3  4  0
  1 24  4  0
  2  6  4  0
  2 15  4  0
  3  5  4  0
  3  6  4  0
  4 21  4  0
  4 29  4  0
  5 15  4  0
  5 28  1  0
  6 16  4  0
  7 18  4  0
  7 26  4  0
  8 18  1  0
  8 19  4  0
  8 22  4  0
  9 12  4  0
  9 19  4  0
 10 12  4  0
 10 22  4  0
 11 20  4  0
 11 21  4  0
 12 23  1  0
 13 20  4  0
 13 29  4  0
 14 17  4  0
 14 28  4  0
 15 25  2  0
 16 27  4  0
 17 18  4  0
 20 27  1  0
 24 27  4  0
 26 28  4  0
M  END
$$$$

 Created by Python create_sdf_string function

 29 33  0  0  0  0  0  0  0  0999 V2000
    8.8270   -7.0288   18.4251 C   0  0  0  0  0  0  0  0  0  0  0  0
    9.1576   -4.6236   15.8860 O   0  0  0  0  0  0  0  0  0  0  0  0
    9.1509   -5.9108   17.7177 C   0  0  0  0  0  0  0  0  0  0  0  0
    3.6373   -9.5349   16.0582 N   0  0  0  0  0  0  0  0  0  0  0  0
    9.9275   -4.8001   18.0438 N   0  0  0  0  0  0  0  0  0  0  0  0
    8.5908   -5.7425   16.4412 C   0  0  0  0  0  0  0  0  0  0  0  0
   10.5993   -4.8981   21.6068 C   0  0  0  0  0  0  0  0  0  0  0  0
   10.4258   -3.0106   23.0998 C   0  0  0  0  0  0  0  0  0  0  0  0
   10.2148   -3.4364   25.4200 C   0  0  0  0  0  0  0  0  0  0  0  0
    9.7853   -1.1840   24.4927 C   0  0  0  0  0  0  0  0  0  0  0  0
    5.0276   -8.5227   17.5352 C   0  0  0  0  0  0  0  0  0  0  0  0
    9.8187   -2.0895   25.5800 C   0  0  0  0  0  0  0  0  0  0  0  0
    5.6473   -8.7216   15.3158 C   0  0  0  0  0  0  0  0  0  0  0  0
   10.7581   -3.1233   19.4720 N   0  0  0  0  0  0  0  0  0  0  0  0
    9.9571   -4.0573   16.8866 C   0  0  0  0  0  0  0  0  0  0  0  0
    7.6213   -6.5618   16.0087 C   0  0  0  0  0  0  0  0  0  0  0  0
   10.8583   -2.6527   20.7222 C   0  0  0  0  0  0  0  0  0  0  0  0
   10.6412   -3.5089   21.7936 C   0  0  0  0  0  0  0  0  0  0  0  0
   10.4972   -3.8968   24.1589 C   0  0  0  0  0  0  0  0  0  0  0  0
    5.9260   -8.2736   16.5517 C   0  0  0  0  0  0  0  0  0  0  0  0
    3.8816   -9.1166   17.2493 C   0  0  0  0  0  0  0  0  0  0  0  0
   10.1297   -1.6575   23.2324 C   0  0  0  0  0  0  0  0  0  0  0  0
    9.4684   -1.6929   26.7263 F   0  0  0  0  0  0  0  0  0  0  0  0
    7.7963   -7.7906   17.9837 C   0  0  0  0  0  0  0  0  0  0  0  0
   10.5884   -3.0725   16.7902 O   0  0  0  0  0  0  0  0  0  0  0  0
   10.4323   -5.3494   20.3516 C   0  0  0  0  0  0  0  0  0  0  0  0
    7.1156   -7.5454   16.8218 C   0  0  0  0  0  0  0  0  0  0  0  0
   10.3885   -4.4388   19.2773 C   0  0  0  0  0  0  0  0  0  0  0  0
    4.5160   -9.3822   15.0841 C   0  0  0  0  0  0  0  0  0  0  0  0
  1  3  4  0
  1 24  4  0
  2  6  4  0
  2 15  4  0
  3  5  4  0
  3  6  4  0
  4 21  4  0
  4 29  4  0
  5 15  4  0
  5 28  1  0
  6 16  4  0
  7 18  4  0
  7 26  4  0
  8 18  1  0
  8 19  4  0
  8 22  4  0
  9 12  4  0
  9 19  4  0
 10 12  4  0
 10 22  4  0
 11 20  4  0
 11 21  4  0
 12 23  1  0
 13 20  4  0
 13 29  4  0
 14 17  4  0
 14 28  4  0
 15 25  2  0
 16 27  4  0
 17 18  4  0
 20 27  1  0
 24 27  4  0
 26 28  4  0
M  END
$$$$

 Created by Python create_sdf_string function

 29 33  0  0  0  0  0  0  0  0999 V2000
    8.8270   -7.0288   18.4251 C   0  0  0  0  0  0  0  0  0  0  0  0
    9.1576   -4.6236   15.8860 O   0  0  0  0  0  0  0  0  0  0  0  0
    9.1509   -5.9108   17.7177 C   0  0  0  0  0  0  0  0  0  0  0  0
    3.6373   -9.5349   16.0582 N   0  0  0  0  0  0  0  0  0  0  0  0
    9.9275   -4.8001   18.0438 N   0  0  0  0  0  0  0  0  0  0  0  0
    8.5908   -5.7425   16.4412 C   0  0  0  0  0  0  0  0  0  0  0  0
   10.5993   -4.8981   21.6068 C   0  0  0  0  0  0  0  0  0  0  0  0
   10.4258   -3.0106   23.0998 C   0  0  0  0  0  0  0  0  0  0  0  0
   10.2148   -3.4364   25.4200 C   0  0  0  0  0  0  0  0  0  0  0  0
    9.7853   -1.1840   24.4927 C   0  0  0  0  0  0  0  0  0  0  0  0
    5.0276   -8.5227   17.5352 C   0  0  0  0  0  0  0  0  0  0  0  0
    9.8187   -2.0895   25.5800 C   0  0  0  0  0  0  0  0  0  0  0  0
    5.6473   -8.7216   15.3158 C   0  0  0  0  0  0  0  0  0  0  0  0
   10.7581   -3.1233   19.4720 N   0  0  0  0  0  0  0  0  0  0  0  0
    9.9571   -4.0573   16.8866 C   0  0  0  0  0  0  0  0  0  0  0  0
    7.6213   -6.5618   16.0087 C   0  0  0  0  0  0  0  0  0  0  0  0
   10.8583   -2.6527   20.7222 C   0  0  0  0  0  0  0  0  0  0  0  0
   10.6412   -3.5089   21.7936 C   0  0  0  0  0  0  0  0  0  0  0  0
   10.4972   -3.8968   24.1589 C   0  0  0  0  0  0  0  0  0  0  0  0
    5.9260   -8.2736   16.5517 C   0  0  0  0  0  0  0  0  0  0  0  0
    3.8816   -9.1166   17.2493 C   0  0  0  0  0  0  0  0  0  0  0  0
   10.1297   -1.6575   23.2324 C   0  0  0  0  0  0  0  0  0  0  0  0
    9.4684   -1.6929   26.7263 F   0  0  0  0  0  0  0  0  0  0  0  0
    7.7963   -7.7906   17.9837 C   0  0  0  0  0  0  0  0  0  0  0  0
   10.5884   -3.0725   16.7902 O   0  0  0  0  0  0  0  0  0  0  0  0
   10.4323   -5.3494   20.3516 C   0  0  0  0  0  0  0  0  0  0  0  0
    7.1156   -7.5454   16.8218 C   0  0  0  0  0  0  0  0  0  0  0  0
   10.3885   -4.4388   19.2773 C   0  0  0  0  0  0  0  0  0  0  0  0
    4.5160   -9.3822   15.0841 C   0  0  0  0  0  0  0  0  0  0  0  0
  1  3  4  0
  1 24  4  0
  2  6  4  0
  2 15  4  0
  3  5  4  0
  3  6  4  0
  4 21  4  0
  4 29  4  0
  5 15  4  0
  5 28  1  0
  6 16  4  0
  7 18  4  0
  7 26  4  0
  8 18  1  0
  8 19  4  0
  8 22  4  0
  9 12  4  0
  9 19  4  0
 10 12  4  0
 10 22  4  0
 11 20  4  0
 11 21  4  0
 12 23  1  0
 13 20  4  0
 13 29  4  0
 14 17  4  0
 14 28  4  0
 15 25  2  0
 16 27  4  0
 17 18  4  0
 20 27  1  0
 24 27  4  0
 26 28  4  0
M  END
$$$$

 Created by Python create_sdf_string function

 29 33  0  0  0  0  0  0  0  0999 V2000
    8.8270   -7.0288   18.4251 C   0  0  0  0  0  0  0  0  0  0  0  0
    9.1576   -4.6236   15.8860 O   0  0  0  0  0  0  0  0  0  0  0  0
    9.1509   -5.9108   17.7177 C   0  0  0  0  0  0  0  0  0  0  0  0
    3.6373   -9.5349   16.0582 N   0  0  0  0  0  0  0  0  0  0  0  0
    9.9275   -4.8001   18.0438 N   0  0  0  0  0  0  0  0  0  0  0  0
    8.5908   -5.7425   16.4412 C   0  0  0  0  0  0  0  0  0  0  0  0
   10.5993   -4.8981   21.6068 C   0  0  0  0  0  0  0  0  0  0  0  0
   10.4258   -3.0106   23.0998 C   0  0  0  0  0  0  0  0  0  0  0  0
   10.2148   -3.4364   25.4200 C   0  0  0  0  0  0  0  0  0  0  0  0
    9.7853   -1.1840   24.4927 C   0  0  0  0  0  0  0  0  0  0  0  0
    5.0276   -8.5227   17.5352 C   0  0  0  0  0  0  0  0  0  0  0  0
    9.8187   -2.0895   25.5800 C   0  0  0  0  0  0  0  0  0  0  0  0
    5.6473   -8.7216   15.3158 C   0  0  0  0  0  0  0  0  0  0  0  0
   10.7581   -3.1233   19.4720 N   0  0  0  0  0  0  0  0  0  0  0  0
    9.9571   -4.0573   16.8866 C   0  0  0  0  0  0  0  0  0  0  0  0
    7.6213   -6.5618   16.0087 C   0  0  0  0  0  0  0  0  0  0  0  0
   10.8583   -2.6527   20.7222 C   0  0  0  0  0  0  0  0  0  0  0  0
   10.6412   -3.5089   21.7936 C   0  0  0  0  0  0  0  0  0  0  0  0
   10.4972   -3.8968   24.1589 C   0  0  0  0  0  0  0  0  0  0  0  0
    5.9260   -8.2736   16.5517 C   0  0  0  0  0  0  0  0  0  0  0  0
    3.8816   -9.1166   17.2493 C   0  0  0  0  0  0  0  0  0  0  0  0
   10.1297   -1.6575   23.2324 C   0  0  0  0  0  0  0  0  0  0  0  0
    9.4684   -1.6929   26.7263 F   0  0  0  0  0  0  0  0  0  0  0  0
    7.7963   -7.7906   17.9837 C   0  0  0  0  0  0  0  0  0  0  0  0
   10.5884   -3.0725   16.7902 O   0  0  0  0  0  0  0  0  0  0  0  0
   10.4323   -5.3494   20.3516 C   0  0  0  0  0  0  0  0  0  0  0  0
    7.1156   -7.5454   16.8218 C   0  0  0  0  0  0  0  0  0  0  0  0
   10.3885   -4.4388   19.2773 C   0  0  0  0  0  0  0  0  0  0  0  0
    4.5160   -9.3822   15.0841 C   0  0  0  0  0  0  0  0  0  0  0  0
  1  3  4  0
  1 24  4  0
  2  6  4  0
  2 15  4  0
  3  5  4  0
  3  6  4  0
  4 21  4  0
  4 29  4  0
  5 15  4  0
  5 28  1  0
  6 16  4  0
  7 18  4  0
  7 26  4  0
  8 18  1  0
  8 19  4  0
  8 22  4  0
  9 12  4  0
  9 19  4  0
 10 12  4  0
 10 22  4  0
 11 20  4  0
 11 21  4  0
 12 23  1  0
 13 20  4  0
 13 29  4  0
 14 17  4  0
 14 28  4  0
 15 25  2  0
 16 27  4  0
 17 18  4  0
 20 27  1  0
 24 27  4  0
 26 28  4  0
M  END
$$$$

 Created by Python create_sdf_string function

 29 33  0  0  0  0  0  0  0  0999 V2000
    8.8270   -7.0288   18.4251 C   0  0  0  0  0  0  0  0  0  0  0  0
    9.1576   -4.6236   15.8860 O   0  0  0  0  0  0  0  0  0  0  0  0
    9.1509   -5.9108   17.7177 C   0  0  0  0  0  0  0  0  0  0  0  0
    3.6373   -9.5349   16.0582 N   0  0  0  0  0  0  0  0  0  0  0  0
    9.9275   -4.8001   18.0438 N   0  0  0  0  0  0  0  0  0  0  0  0
    8.5908   -5.7425   16.4412 C   0  0  0  0  0  0  0  0  0  0  0  0
   10.5993   -4.8981   21.6068 C   0  0  0  0  0  0  0  0  0  0  0  0
   10.4258   -3.0106   23.0998 C   0  0  0  0  0  0  0  0  0  0  0  0
   10.2148   -3.4364   25.4200 C   0  0  0  0  0  0  0  0  0  0  0  0
    9.7853   -1.1840   24.4927 C   0  0  0  0  0  0  0  0  0  0  0  0
    5.0276   -8.5227   17.5352 C   0  0  0  0  0  0  0  0  0  0  0  0
    9.8187   -2.0895   25.5800 C   0  0  0  0  0  0  0  0  0  0  0  0
    5.6473   -8.7216   15.3158 C   0  0  0  0  0  0  0  0  0  0  0  0
   10.7581   -3.1233   19.4720 N   0  0  0  0  0  0  0  0  0  0  0  0
    9.9571   -4.0573   16.8866 C   0  0  0  0  0  0  0  0  0  0  0  0
    7.6213   -6.5618   16.0087 C   0  0  0  0  0  0  0  0  0  0  0  0
   10.8583   -2.6527   20.7222 C   0  0  0  0  0  0  0  0  0  0  0  0
   10.6412   -3.5089   21.7936 C   0  0  0  0  0  0  0  0  0  0  0  0
   10.4972   -3.8968   24.1589 C   0  0  0  0  0  0  0  0  0  0  0  0
    5.9260   -8.2736   16.5517 C   0  0  0  0  0  0  0  0  0  0  0  0
    3.8816   -9.1166   17.2493 C   0  0  0  0  0  0  0  0  0  0  0  0
   10.1297   -1.6575   23.2324 C   0  0  0  0  0  0  0  0  0  0  0  0
    9.4684   -1.6929   26.7263 F   0  0  0  0  0  0  0  0  0  0  0  0
    7.7963   -7.7906   17.9837 C   0  0  0  0  0  0  0  0  0  0  0  0
   10.5884   -3.0725   16.7902 O   0  0  0  0  0  0  0  0  0  0  0  0
   10.4323   -5.3494   20.3516 C   0  0  0  0  0  0  0  0  0  0  0  0
    7.1156   -7.5454   16.8218 C   0  0  0  0  0  0  0  0  0  0  0  0
   10.3885   -4.4388   19.2773 C   0  0  0  0  0  0  0  0  0  0  0  0
    4.5160   -9.3822   15.0841 C   0  0  0  0  0  0  0  0  0  0  0  0
  1  3  4  0
  1 24  4  0
  2  6  4  0
  2 15  4  0
  3  5  4  0
  3  6  4  0
  4 21  4  0
  4 29  4  0
  5 15  4  0
  5 28  1  0
  6 16  4  0
  7 18  4  0
  7 26  4  0
  8 18  1  0
  8 19  4  0
  8 22  4  0
  9 12  4  0
  9 19  4  0
 10 12  4  0
 10 22  4  0
 11 20  4  0
 11 21  4  0
 12 23  1  0
 13 20  4  0
 13 29  4  0
 14 17  4  0
 14 28  4  0
 15 25  2  0
 16 27  4  0
 17 18  4  0
 20 27  1  0
 24 27  4  0
 26 28  4  0
M  END
$$$$

 Created by Python create_sdf_string function

 29 33  0  0  0  0  0  0  0  0999 V2000
    8.8270   -7.0288   18.4251 C   0  0  0  0  0  0  0  0  0  0  0  0
    9.1576   -4.6236   15.8860 O   0  0  0  0  0  0  0  0  0  0  0  0
    9.1509   -5.9108   17.7177 C   0  0  0  0  0  0  0  0  0  0  0  0
    3.6373   -9.5349   16.0582 N   0  0  0  0  0  0  0  0  0  0  0  0
    9.9275   -4.8001   18.0438 N   0  0  0  0  0  0  0  0  0  0  0  0
    8.5908   -5.7425   16.4412 C   0  0  0  0  0  0  0  0  0  0  0  0
   10.5993   -4.8981   21.6068 C   0  0  0  0  0  0  0  0  0  0  0  0
   10.4258   -3.0106   23.0998 C   0  0  0  0  0  0  0  0  0  0  0  0
   10.2148   -3.4364   25.4200 C   0  0  0  0  0  0  0  0  0  0  0  0
    9.7853   -1.1840   24.4927 C   0  0  0  0  0  0  0  0  0  0  0  0
    5.0276   -8.5227   17.5352 C   0  0  0  0  0  0  0  0  0  0  0  0
    9.8187   -2.0895   25.5800 C   0  0  0  0  0  0  0  0  0  0  0  0
    5.6473   -8.7216   15.3158 C   0  0  0  0  0  0  0  0  0  0  0  0
   10.7581   -3.1233   19.4720 N   0  0  0  0  0  0  0  0  0  0  0  0
    9.9571   -4.0573   16.8866 C   0  0  0  0  0  0  0  0  0  0  0  0
    7.6213   -6.5618   16.0087 C   0  0  0  0  0  0  0  0  0  0  0  0
   10.8583   -2.6527   20.7222 C   0  0  0  0  0  0  0  0  0  0  0  0
   10.6412   -3.5089   21.7936 C   0  0  0  0  0  0  0  0  0  0  0  0
   10.4972   -3.8968   24.1589 C   0  0  0  0  0  0  0  0  0  0  0  0
    5.9260   -8.2736   16.5517 C   0  0  0  0  0  0  0  0  0  0  0  0
    3.8816   -9.1166   17.2493 C   0  0  0  0  0  0  0  0  0  0  0  0
   10.1297   -1.6575   23.2324 C   0  0  0  0  0  0  0  0  0  0  0  0
    9.4684   -1.6929   26.7263 F   0  0  0  0  0  0  0  0  0  0  0  0
    7.7963   -7.7906   17.9837 C   0  0  0  0  0  0  0  0  0  0  0  0
   10.5884   -3.0725   16.7902 O   0  0  0  0  0  0  0  0  0  0  0  0
   10.4323   -5.3494   20.3516 C   0  0  0  0  0  0  0  0  0  0  0  0
    7.1156   -7.5454   16.8218 C   0  0  0  0  0  0  0  0  0  0  0  0
   10.3885   -4.4388   19.2773 C   0  0  0  0  0  0  0  0  0  0  0  0
    4.5160   -9.3822   15.0841 C   0  0  0  0  0  0  0  0  0  0  0  0
  1  3  4  0
  1 24  4  0
  2  6  4  0
  2 15  4  0
  3  5  4  0
  3  6  4  0
  4 21  4  0
  4 29  4  0
  5 15  4  0
  5 28  1  0
  6 16  4  0
  7 18  4  0
  7 26  4  0
  8 18  1  0
  8 19  4  0
  8 22  4  0
  9 12  4  0
  9 19  4  0
 10 12  4  0
 10 22  4  0
 11 20  4  0
 11 21  4  0
 12 23  1  0
 13 20  4  0
 13 29  4  0
 14 17  4  0
 14 28  4  0
 15 25  2  0
 16 27  4  0
 17 18  4  0
 20 27  1  0
 24 27  4  0
 26 28  4  0
M  END
$$$$

 Created by Python create_sdf_string function

 29 33  0  0  0  0  0  0  0  0999 V2000
    8.8270   -7.0288   18.4251 C   0  0  0  0  0  0  0  0  0  0  0  0
    9.1576   -4.6236   15.8860 O   0  0  0  0  0  0  0  0  0  0  0  0
    9.1509   -5.9108   17.7177 C   0  0  0  0  0  0  0  0  0  0  0  0
    3.6373   -9.5349   16.0582 N   0  0  0  0  0  0  0  0  0  0  0  0
    9.9275   -4.8001   18.0438 N   0  0  0  0  0  0  0  0  0  0  0  0
    8.5908   -5.7425   16.4412 C   0  0  0  0  0  0  0  0  0  0  0  0
   10.5993   -4.8981   21.6068 C   0  0  0  0  0  0  0  0  0  0  0  0
   10.4258   -3.0106   23.0998 C   0  0  0  0  0  0  0  0  0  0  0  0
   10.2148   -3.4364   25.4200 C   0  0  0  0  0  0  0  0  0  0  0  0
    9.7853   -1.1840   24.4927 C   0  0  0  0  0  0  0  0  0  0  0  0
    5.0276   -8.5227   17.5352 C   0  0  0  0  0  0  0  0  0  0  0  0
    9.8187   -2.0895   25.5800 C   0  0  0  0  0  0  0  0  0  0  0  0
    5.6473   -8.7216   15.3158 C   0  0  0  0  0  0  0  0  0  0  0  0
   10.7581   -3.1233   19.4720 N   0  0  0  0  0  0  0  0  0  0  0  0
    9.9571   -4.0573   16.8866 C   0  0  0  0  0  0  0  0  0  0  0  0
    7.6213   -6.5618   16.0087 C   0  0  0  0  0  0  0  0  0  0  0  0
   10.8583   -2.6527   20.7222 C   0  0  0  0  0  0  0  0  0  0  0  0
   10.6412   -3.5089   21.7936 C   0  0  0  0  0  0  0  0  0  0  0  0
   10.4972   -3.8968   24.1589 C   0  0  0  0  0  0  0  0  0  0  0  0
    5.9260   -8.2736   16.5517 C   0  0  0  0  0  0  0  0  0  0  0  0
    3.8816   -9.1166   17.2493 C   0  0  0  0  0  0  0  0  0  0  0  0
   10.1297   -1.6575   23.2324 C   0  0  0  0  0  0  0  0  0  0  0  0
    9.4684   -1.6929   26.7263 F   0  0  0  0  0  0  0  0  0  0  0  0
    7.7963   -7.7906   17.9837 C   0  0  0  0  0  0  0  0  0  0  0  0
   10.5884   -3.0725   16.7902 O   0  0  0  0  0  0  0  0  0  0  0  0
   10.4323   -5.3494   20.3516 C   0  0  0  0  0  0  0  0  0  0  0  0
    7.1156   -7.5454   16.8218 C   0  0  0  0  0  0  0  0  0  0  0  0
   10.3885   -4.4388   19.2773 C   0  0  0  0  0  0  0  0  0  0  0  0
    4.5160   -9.3822   15.0841 C   0  0  0  0  0  0  0  0  0  0  0  0
  1  3  4  0
  1 24  4  0
  2  6  4  0
  2 15  4  0
  3  5  4  0
  3  6  4  0
  4 21  4  0
  4 29  4  0
  5 15  4  0
  5 28  1  0
  6 16  4  0
  7 18  4  0
  7 26  4  0
  8 18  1  0
  8 19  4  0
  8 22  4  0
  9 12  4  0
  9 19  4  0
 10 12  4  0
 10 22  4  0
 11 20  4  0
 11 21  4  0
 12 23  1  0
 13 20  4  0
 13 29  4  0
 14 17  4  0
 14 28  4  0
 15 25  2  0
 16 27  4  0
 17 18  4  0
 20 27  1  0
 24 27  4  0
 26 28  4  0
M  END
$$$$

 Created by Python create_sdf_string function

 29 33  0  0  0  0  0  0  0  0999 V2000
    8.8270   -7.0288   18.4251 C   0  0  0  0  0  0  0  0  0  0  0  0
    9.1576   -4.6236   15.8860 O   0  0  0  0  0  0  0  0  0  0  0  0
    9.1509   -5.9108   17.7177 C   0  0  0  0  0  0  0  0  0  0  0  0
    3.6373   -9.5349   16.0582 N   0  0  0  0  0  0  0  0  0  0  0  0
    9.9275   -4.8001   18.0438 N   0  0  0  0  0  0  0  0  0  0  0  0
    8.5908   -5.7425   16.4412 C   0  0  0  0  0  0  0  0  0  0  0  0
   10.5993   -4.8981   21.6068 C   0  0  0  0  0  0  0  0  0  0  0  0
   10.4258   -3.0106   23.0998 C   0  0  0  0  0  0  0  0  0  0  0  0
   10.2148   -3.4364   25.4200 C   0  0  0  0  0  0  0  0  0  0  0  0
    9.7853   -1.1840   24.4927 C   0  0  0  0  0  0  0  0  0  0  0  0
    5.0276   -8.5227   17.5352 C   0  0  0  0  0  0  0  0  0  0  0  0
    9.8187   -2.0895   25.5800 C   0  0  0  0  0  0  0  0  0  0  0  0
    5.6473   -8.7216   15.3158 C   0  0  0  0  0  0  0  0  0  0  0  0
   10.7581   -3.1233   19.4720 N   0  0  0  0  0  0  0  0  0  0  0  0
    9.9571   -4.0573   16.8866 C   0  0  0  0  0  0  0  0  0  0  0  0
    7.6213   -6.5618   16.0087 C   0  0  0  0  0  0  0  0  0  0  0  0
   10.8583   -2.6527   20.7222 C   0  0  0  0  0  0  0  0  0  0  0  0
   10.6412   -3.5089   21.7936 C   0  0  0  0  0  0  0  0  0  0  0  0
   10.4972   -3.8968   24.1589 C   0  0  0  0  0  0  0  0  0  0  0  0
    5.9260   -8.2736   16.5517 C   0  0  0  0  0  0  0  0  0  0  0  0
    3.8816   -9.1166   17.2493 C   0  0  0  0  0  0  0  0  0  0  0  0
   10.1297   -1.6575   23.2324 C   0  0  0  0  0  0  0  0  0  0  0  0
    9.4684   -1.6929   26.7263 F   0  0  0  0  0  0  0  0  0  0  0  0
    7.7963   -7.7906   17.9837 C   0  0  0  0  0  0  0  0  0  0  0  0
   10.5884   -3.0725   16.7902 O   0  0  0  0  0  0  0  0  0  0  0  0
   10.4323   -5.3494   20.3516 C   0  0  0  0  0  0  0  0  0  0  0  0
    7.1156   -7.5454   16.8218 C   0  0  0  0  0  0  0  0  0  0  0  0
   10.3885   -4.4388   19.2773 C   0  0  0  0  0  0  0  0  0  0  0  0
    4.5160   -9.3822   15.0841 C   0  0  0  0  0  0  0  0  0  0  0  0
  1  3  4  0
  1 24  4  0
  2  6  4  0
  2 15  4  0
  3  5  4  0
  3  6  4  0
  4 21  4  0
  4 29  4  0
  5 15  4  0
  5 28  1  0
  6 16  4  0
  7 18  4  0
  7 26  4  0
  8 18  1  0
  8 19  4  0
  8 22  4  0
  9 12  4  0
  9 19  4  0
 10 12  4  0
 10 22  4  0
 11 20  4  0
 11 21  4  0
 12 23  1  0
 13 20  4  0
 13 29  4  0
 14 17  4  0
 14 28  4  0
 15 25  2  0
 16 27  4  0
 17 18  4  0
 20 27  1  0
 24 27  4  0
 26 28  4  0
M  END
$$$$

 Created by Python create_sdf_string function

 29 33  0  0  0  0  0  0  0  0999 V2000
    8.8270   -7.0288   18.4251 C   0  0  0  0  0  0  0  0  0  0  0  0
    9.1576   -4.6236   15.8860 O   0  0  0  0  0  0  0  0  0  0  0  0
    9.1509   -5.9108   17.7177 C   0  0  0  0  0  0  0  0  0  0  0  0
    3.6373   -9.5349   16.0582 N   0  0  0  0  0  0  0  0  0  0  0  0
    9.9275   -4.8001   18.0438 N   0  0  0  0  0  0  0  0  0  0  0  0
    8.5908   -5.7425   16.4412 C   0  0  0  0  0  0  0  0  0  0  0  0
   10.5993   -4.8981   21.6068 C   0  0  0  0  0  0  0  0  0  0  0  0
   10.4258   -3.0106   23.0998 C   0  0  0  0  0  0  0  0  0  0  0  0
   10.2148   -3.4364   25.4200 C   0  0  0  0  0  0  0  0  0  0  0  0
    9.7853   -1.1840   24.4927 C   0  0  0  0  0  0  0  0  0  0  0  0
    5.0276   -8.5227   17.5352 C   0  0  0  0  0  0  0  0  0  0  0  0
    9.8187   -2.0895   25.5800 C   0  0  0  0  0  0  0  0  0  0  0  0
    5.6473   -8.7216   15.3158 C   0  0  0  0  0  0  0  0  0  0  0  0
   10.7581   -3.1233   19.4720 N   0  0  0  0  0  0  0  0  0  0  0  0
    9.9571   -4.0573   16.8866 C   0  0  0  0  0  0  0  0  0  0  0  0
    7.6213   -6.5618   16.0087 C   0  0  0  0  0  0  0  0  0  0  0  0
   10.8583   -2.6527   20.7222 C   0  0  0  0  0  0  0  0  0  0  0  0
   10.6412   -3.5089   21.7936 C   0  0  0  0  0  0  0  0  0  0  0  0
   10.4972   -3.8968   24.1589 C   0  0  0  0  0  0  0  0  0  0  0  0
    5.9260   -8.2736   16.5517 C   0  0  0  0  0  0  0  0  0  0  0  0
    3.8816   -9.1166   17.2493 C   0  0  0  0  0  0  0  0  0  0  0  0
   10.1297   -1.6575   23.2324 C   0  0  0  0  0  0  0  0  0  0  0  0
    9.4684   -1.6929   26.7263 F   0  0  0  0  0  0  0  0  0  0  0  0
    7.7963   -7.7906   17.9837 C   0  0  0  0  0  0  0  0  0  0  0  0
   10.5884   -3.0725   16.7902 O   0  0  0  0  0  0  0  0  0  0  0  0
   10.4323   -5.3494   20.3516 C   0  0  0  0  0  0  0  0  0  0  0  0
    7.1156   -7.5454   16.8218 C   0  0  0  0  0  0  0  0  0  0  0  0
   10.3885   -4.4388   19.2773 C   0  0  0  0  0  0  0  0  0  0  0  0
    4.5160   -9.3822   15.0841 C   0  0  0  0  0  0  0  0  0  0  0  0
  1  3  4  0
  1 24  4  0
  2  6  4  0
  2 15  4  0
  3  5  4  0
  3  6  4  0
  4 21  4  0
  4 29  4  0
  5 15  4  0
  5 28  1  0
  6 16  4  0
  7 18  4  0
  7 26  4  0
  8 18  1  0
  8 19  4  0
  8 22  4  0
  9 12  4  0
  9 19  4  0
 10 12  4  0
 10 22  4  0
 11 20  4  0
 11 21  4  0
 12 23  1  0
 13 20  4  0
 13 29  4  0
 14 17  4  0
 14 28  4  0
 15 25  2  0
 16 27  4  0
 17 18  4  0
 20 27  1  0
 24 27  4  0
 26 28  4  0
M  END
$$$$

 Created by Python create_sdf_string function

 29 33  0  0  0  0  0  0  0  0999 V2000
    8.8270   -7.0288   18.4251 C   0  0  0  0  0  0  0  0  0  0  0  0
    9.1576   -4.6236   15.8860 O   0  0  0  0  0  0  0  0  0  0  0  0
    9.1509   -5.9108   17.7177 C   0  0  0  0  0  0  0  0  0  0  0  0
    3.6373   -9.5349   16.0582 N   0  0  0  0  0  0  0  0  0  0  0  0
    9.9275   -4.8001   18.0438 N   0  0  0  0  0  0  0  0  0  0  0  0
    8.5908   -5.7425   16.4412 C   0  0  0  0  0  0  0  0  0  0  0  0
   10.5993   -4.8981   21.6068 C   0  0  0  0  0  0  0  0  0  0  0  0
   10.4258   -3.0106   23.0998 C   0  0  0  0  0  0  0  0  0  0  0  0
   10.2148   -3.4364   25.4200 C   0  0  0  0  0  0  0  0  0  0  0  0
    9.7853   -1.1840   24.4927 C   0  0  0  0  0  0  0  0  0  0  0  0
    5.0276   -8.5227   17.5352 C   0  0  0  0  0  0  0  0  0  0  0  0
    9.8187   -2.0895   25.5800 C   0  0  0  0  0  0  0  0  0  0  0  0
    5.6473   -8.7216   15.3158 C   0  0  0  0  0  0  0  0  0  0  0  0
   10.7581   -3.1233   19.4720 N   0  0  0  0  0  0  0  0  0  0  0  0
    9.9571   -4.0573   16.8866 C   0  0  0  0  0  0  0  0  0  0  0  0
    7.6213   -6.5618   16.0087 C   0  0  0  0  0  0  0  0  0  0  0  0
   10.8583   -2.6527   20.7222 C   0  0  0  0  0  0  0  0  0  0  0  0
   10.6412   -3.5089   21.7936 C   0  0  0  0  0  0  0  0  0  0  0  0
   10.4972   -3.8968   24.1589 C   0  0  0  0  0  0  0  0  0  0  0  0
    5.9260   -8.2736   16.5517 C   0  0  0  0  0  0  0  0  0  0  0  0
    3.8816   -9.1166   17.2493 C   0  0  0  0  0  0  0  0  0  0  0  0
   10.1297   -1.6575   23.2324 C   0  0  0  0  0  0  0  0  0  0  0  0
    9.4684   -1.6929   26.7263 F   0  0  0  0  0  0  0  0  0  0  0  0
    7.7963   -7.7906   17.9837 C   0  0  0  0  0  0  0  0  0  0  0  0
   10.5884   -3.0725   16.7902 O   0  0  0  0  0  0  0  0  0  0  0  0
   10.4323   -5.3494   20.3516 C   0  0  0  0  0  0  0  0  0  0  0  0
    7.1156   -7.5454   16.8218 C   0  0  0  0  0  0  0  0  0  0  0  0
   10.3885   -4.4388   19.2773 C   0  0  0  0  0  0  0  0  0  0  0  0
    4.5160   -9.3822   15.0841 C   0  0  0  0  0  0  0  0  0  0  0  0
  1  3  4  0
  1 24  4  0
  2  6  4  0
  2 15  4  0
  3  5  4  0
  3  6  4  0
  4 21  4  0
  4 29  4  0
  5 15  4  0
  5 28  1  0
  6 16  4  0
  7 18  4  0
  7 26  4  0
  8 18  1  0
  8 19  4  0
  8 22  4  0
  9 12  4  0
  9 19  4  0
 10 12  4  0
 10 22  4  0
 11 20  4  0
 11 21  4  0
 12 23  1  0
 13 20  4  0
 13 29  4  0
 14 17  4  0
 14 28  4  0
 15 25  2  0
 16 27  4  0
 17 18  4  0
 20 27  1  0
 24 27  4  0
 26 28  4  0
M  END
$$$$

 Created by Python create_sdf_string function

 29 33  0  0  0  0  0  0  0  0999 V2000
    8.8270   -7.0288   18.4251 C   0  0  0  0  0  0  0  0  0  0  0  0
    9.1576   -4.6236   15.8860 O   0  0  0  0  0  0  0  0  0  0  0  0
    9.1509   -5.9108   17.7177 C   0  0  0  0  0  0  0  0  0  0  0  0
    3.6373   -9.5349   16.0582 N   0  0  0  0  0  0  0  0  0  0  0  0
    9.9275   -4.8001   18.0438 N   0  0  0  0  0  0  0  0  0  0  0  0
    8.5908   -5.7425   16.4412 C   0  0  0  0  0  0  0  0  0  0  0  0
   10.5993   -4.8981   21.6068 C   0  0  0  0  0  0  0  0  0  0  0  0
   10.4258   -3.0106   23.0998 C   0  0  0  0  0  0  0  0  0  0  0  0
   10.2148   -3.4364   25.4200 C   0  0  0  0  0  0  0  0  0  0  0  0
    9.7853   -1.1840   24.4927 C   0  0  0  0  0  0  0  0  0  0  0  0
    5.0276   -8.5227   17.5352 C   0  0  0  0  0  0  0  0  0  0  0  0
    9.8187   -2.0895   25.5800 C   0  0  0  0  0  0  0  0  0  0  0  0
    5.6473   -8.7216   15.3158 C   0  0  0  0  0  0  0  0  0  0  0  0
   10.7581   -3.1233   19.4720 N   0  0  0  0  0  0  0  0  0  0  0  0
    9.9571   -4.0573   16.8866 C   0  0  0  0  0  0  0  0  0  0  0  0
    7.6213   -6.5618   16.0087 C   0  0  0  0  0  0  0  0  0  0  0  0
   10.8583   -2.6527   20.7222 C   0  0  0  0  0  0  0  0  0  0  0  0
   10.6412   -3.5089   21.7936 C   0  0  0  0  0  0  0  0  0  0  0  0
   10.4972   -3.8968   24.1589 C   0  0  0  0  0  0  0  0  0  0  0  0
    5.9260   -8.2736   16.5517 C   0  0  0  0  0  0  0  0  0  0  0  0
    3.8816   -9.1166   17.2493 C   0  0  0  0  0  0  0  0  0  0  0  0
   10.1297   -1.6575   23.2324 C   0  0  0  0  0  0  0  0  0  0  0  0
    9.4684   -1.6929   26.7263 F   0  0  0  0  0  0  0  0  0  0  0  0
    7.7963   -7.7906   17.9837 C   0  0  0  0  0  0  0  0  0  0  0  0
   10.5884   -3.0725   16.7902 O   0  0  0  0  0  0  0  0  0  0  0  0
   10.4323   -5.3494   20.3516 C   0  0  0  0  0  0  0  0  0  0  0  0
    7.1156   -7.5454   16.8218 C   0  0  0  0  0  0  0  0  0  0  0  0
   10.3885   -4.4388   19.2773 C   0  0  0  0  0  0  0  0  0  0  0  0
    4.5160   -9.3822   15.0841 C   0  0  0  0  0  0  0  0  0  0  0  0
  1  3  4  0
  1 24  4  0
  2  6  4  0
  2 15  4  0
  3  5  4  0
  3  6  4  0
  4 21  4  0
  4 29  4  0
  5 15  4  0
  5 28  1  0
  6 16  4  0
  7 18  4  0
  7 26  4  0
  8 18  1  0
  8 19  4  0
  8 22  4  0
  9 12  4  0
  9 19  4  0
 10 12  4  0
 10 22  4  0
 11 20  4  0
 11 21  4  0
 12 23  1  0
 13 20  4  0
 13 29  4  0
 14 17  4  0
 14 28  4  0
 15 25  2  0
 16 27  4  0
 17 18  4  0
 20 27  1  0
 24 27  4  0
 26 28  4  0
M  END
$$$$

 Created by Python create_sdf_string function

 29 33  0  0  0  0  0  0  0  0999 V2000
    8.8270   -7.0288   18.4251 C   0  0  0  0  0  0  0  0  0  0  0  0
    9.1576   -4.6236   15.8860 O   0  0  0  0  0  0  0  0  0  0  0  0
    9.1509   -5.9108   17.7177 C   0  0  0  0  0  0  0  0  0  0  0  0
    3.6373   -9.5349   16.0582 N   0  0  0  0  0  0  0  0  0  0  0  0
    9.9275   -4.8001   18.0438 N   0  0  0  0  0  0  0  0  0  0  0  0
    8.5908   -5.7425   16.4412 C   0  0  0  0  0  0  0  0  0  0  0  0
   10.5993   -4.8981   21.6068 C   0  0  0  0  0  0  0  0  0  0  0  0
   10.4258   -3.0106   23.0998 C   0  0  0  0  0  0  0  0  0  0  0  0
   10.2148   -3.4364   25.4200 C   0  0  0  0  0  0  0  0  0  0  0  0
    9.7853   -1.1840   24.4927 C   0  0  0  0  0  0  0  0  0  0  0  0
    5.0276   -8.5227   17.5352 C   0  0  0  0  0  0  0  0  0  0  0  0
    9.8187   -2.0895   25.5800 C   0  0  0  0  0  0  0  0  0  0  0  0
    5.6473   -8.7216   15.3158 C   0  0  0  0  0  0  0  0  0  0  0  0
   10.7581   -3.1233   19.4720 N   0  0  0  0  0  0  0  0  0  0  0  0
    9.9571   -4.0573   16.8866 C   0  0  0  0  0  0  0  0  0  0  0  0
    7.6213   -6.5618   16.0087 C   0  0  0  0  0  0  0  0  0  0  0  0
   10.8583   -2.6527   20.7222 C   0  0  0  0  0  0  0  0  0  0  0  0
   10.6412   -3.5089   21.7936 C   0  0  0  0  0  0  0  0  0  0  0  0
   10.4972   -3.8968   24.1589 C   0  0  0  0  0  0  0  0  0  0  0  0
    5.9260   -8.2736   16.5517 C   0  0  0  0  0  0  0  0  0  0  0  0
    3.8816   -9.1166   17.2493 C   0  0  0  0  0  0  0  0  0  0  0  0
   10.1297   -1.6575   23.2324 C   0  0  0  0  0  0  0  0  0  0  0  0
    9.4684   -1.6929   26.7263 F   0  0  0  0  0  0  0  0  0  0  0  0
    7.7963   -7.7906   17.9837 C   0  0  0  0  0  0  0  0  0  0  0  0
   10.5884   -3.0725   16.7902 O   0  0  0  0  0  0  0  0  0  0  0  0
   10.4323   -5.3494   20.3516 C   0  0  0  0  0  0  0  0  0  0  0  0
    7.1156   -7.5454   16.8218 C   0  0  0  0  0  0  0  0  0  0  0  0
   10.3885   -4.4388   19.2773 C   0  0  0  0  0  0  0  0  0  0  0  0
    4.5160   -9.3822   15.0841 C   0  0  0  0  0  0  0  0  0  0  0  0
  1  3  4  0
  1 24  4  0
  2  6  4  0
  2 15  4  0
  3  5  4  0
  3  6  4  0
  4 21  4  0
  4 29  4  0
  5 15  4  0
  5 28  1  0
  6 16  4  0
  7 18  4  0
  7 26  4  0
  8 18  1  0
  8 19  4  0
  8 22  4  0
  9 12  4  0
  9 19  4  0
 10 12  4  0
 10 22  4  0
 11 20  4  0
 11 21  4  0
 12 23  1  0
 13 20  4  0
 13 29  4  0
 14 17  4  0
 14 28  4  0
 15 25  2  0
 16 27  4  0
 17 18  4  0
 20 27  1  0
 24 27  4  0
 26 28  4  0
M  END
$$$$

 Created by Python create_sdf_string function

 29 33  0  0  0  0  0  0  0  0999 V2000
    8.8270   -7.0288   18.4251 C   0  0  0  0  0  0  0  0  0  0  0  0
    9.1576   -4.6236   15.8860 O   0  0  0  0  0  0  0  0  0  0  0  0
    9.1509   -5.9108   17.7177 C   0  0  0  0  0  0  0  0  0  0  0  0
    3.6373   -9.5349   16.0582 N   0  0  0  0  0  0  0  0  0  0  0  0
    9.9275   -4.8001   18.0438 N   0  0  0  0  0  0  0  0  0  0  0  0
    8.5908   -5.7425   16.4412 C   0  0  0  0  0  0  0  0  0  0  0  0
   10.5993   -4.8981   21.6068 C   0  0  0  0  0  0  0  0  0  0  0  0
   10.4258   -3.0106   23.0998 C   0  0  0  0  0  0  0  0  0  0  0  0
   10.2148   -3.4364   25.4200 C   0  0  0  0  0  0  0  0  0  0  0  0
    9.7853   -1.1840   24.4927 C   0  0  0  0  0  0  0  0  0  0  0  0
    5.0276   -8.5227   17.5352 C   0  0  0  0  0  0  0  0  0  0  0  0
    9.8187   -2.0895   25.5800 C   0  0  0  0  0  0  0  0  0  0  0  0
    5.6473   -8.7216   15.3158 C   0  0  0  0  0  0  0  0  0  0  0  0
   10.7581   -3.1233   19.4720 N   0  0  0  0  0  0  0  0  0  0  0  0
    9.9571   -4.0573   16.8866 C   0  0  0  0  0  0  0  0  0  0  0  0
    7.6213   -6.5618   16.0087 C   0  0  0  0  0  0  0  0  0  0  0  0
   10.8583   -2.6527   20.7222 C   0  0  0  0  0  0  0  0  0  0  0  0
   10.6412   -3.5089   21.7936 C   0  0  0  0  0  0  0  0  0  0  0  0
   10.4972   -3.8968   24.1589 C   0  0  0  0  0  0  0  0  0  0  0  0
    5.9260   -8.2736   16.5517 C   0  0  0  0  0  0  0  0  0  0  0  0
    3.8816   -9.1166   17.2493 C   0  0  0  0  0  0  0  0  0  0  0  0
   10.1297   -1.6575   23.2324 C   0  0  0  0  0  0  0  0  0  0  0  0
    9.4684   -1.6929   26.7263 F   0  0  0  0  0  0  0  0  0  0  0  0
    7.7963   -7.7906   17.9837 C   0  0  0  0  0  0  0  0  0  0  0  0
   10.5884   -3.0725   16.7902 O   0  0  0  0  0  0  0  0  0  0  0  0
   10.4323   -5.3494   20.3516 C   0  0  0  0  0  0  0  0  0  0  0  0
    7.1156   -7.5454   16.8218 C   0  0  0  0  0  0  0  0  0  0  0  0
   10.3885   -4.4388   19.2773 C   0  0  0  0  0  0  0  0  0  0  0  0
    4.5160   -9.3822   15.0841 C   0  0  0  0  0  0  0  0  0  0  0  0
  1  3  4  0
  1 24  4  0
  2  6  4  0
  2 15  4  0
  3  5  4  0
  3  6  4  0
  4 21  4  0
  4 29  4  0
  5 15  4  0
  5 28  1  0
  6 16  4  0
  7 18  4  0
  7 26  4  0
  8 18  1  0
  8 19  4  0
  8 22  4  0
  9 12  4  0
  9 19  4  0
 10 12  4  0
 10 22  4  0
 11 20  4  0
 11 21  4  0
 12 23  1  0
 13 20  4  0
 13 29  4  0
 14 17  4  0
 14 28  4  0
 15 25  2  0
 16 27  4  0
 17 18  4  0
 20 27  1  0
 24 27  4  0
 26 28  4  0
M  END
$$$$

 Created by Python create_sdf_string function

 29 33  0  0  0  0  0  0  0  0999 V2000
    8.8270   -7.0288   18.4251 C   0  0  0  0  0  0  0  0  0  0  0  0
    9.1576   -4.6236   15.8860 O   0  0  0  0  0  0  0  0  0  0  0  0
    9.1509   -5.9108   17.7177 C   0  0  0  0  0  0  0  0  0  0  0  0
    3.6373   -9.5349   16.0582 N   0  0  0  0  0  0  0  0  0  0  0  0
    9.9275   -4.8001   18.0438 N   0  0  0  0  0  0  0  0  0  0  0  0
    8.5908   -5.7425   16.4412 C   0  0  0  0  0  0  0  0  0  0  0  0
   10.5993   -4.8981   21.6068 C   0  0  0  0  0  0  0  0  0  0  0  0
   10.4258   -3.0106   23.0998 C   0  0  0  0  0  0  0  0  0  0  0  0
   10.2148   -3.4364   25.4200 C   0  0  0  0  0  0  0  0  0  0  0  0
    9.7853   -1.1840   24.4927 C   0  0  0  0  0  0  0  0  0  0  0  0
    5.0276   -8.5227   17.5352 C   0  0  0  0  0  0  0  0  0  0  0  0
    9.8187   -2.0895   25.5800 C   0  0  0  0  0  0  0  0  0  0  0  0
    5.6473   -8.7216   15.3158 C   0  0  0  0  0  0  0  0  0  0  0  0
   10.7581   -3.1233   19.4720 N   0  0  0  0  0  0  0  0  0  0  0  0
    9.9571   -4.0573   16.8866 C   0  0  0  0  0  0  0  0  0  0  0  0
    7.6213   -6.5618   16.0087 C   0  0  0  0  0  0  0  0  0  0  0  0
   10.8583   -2.6527   20.7222 C   0  0  0  0  0  0  0  0  0  0  0  0
   10.6412   -3.5089   21.7936 C   0  0  0  0  0  0  0  0  0  0  0  0
   10.4972   -3.8968   24.1589 C   0  0  0  0  0  0  0  0  0  0  0  0
    5.9260   -8.2736   16.5517 C   0  0  0  0  0  0  0  0  0  0  0  0
    3.8816   -9.1166   17.2493 C   0  0  0  0  0  0  0  0  0  0  0  0
   10.1297   -1.6575   23.2324 C   0  0  0  0  0  0  0  0  0  0  0  0
    9.4684   -1.6929   26.7263 F   0  0  0  0  0  0  0  0  0  0  0  0
    7.7963   -7.7906   17.9837 C   0  0  0  0  0  0  0  0  0  0  0  0
   10.5884   -3.0725   16.7902 O   0  0  0  0  0  0  0  0  0  0  0  0
   10.4323   -5.3494   20.3516 C   0  0  0  0  0  0  0  0  0  0  0  0
    7.1156   -7.5454   16.8218 C   0  0  0  0  0  0  0  0  0  0  0  0
   10.3885   -4.4388   19.2773 C   0  0  0  0  0  0  0  0  0  0  0  0
    4.5160   -9.3822   15.0841 C   0  0  0  0  0  0  0  0  0  0  0  0
  1  3  4  0
  1 24  4  0
  2  6  4  0
  2 15  4  0
  3  5  4  0
  3  6  4  0
  4 21  4  0
  4 29  4  0
  5 15  4  0
  5 28  1  0
  6 16  4  0
  7 18  4  0
  7 26  4  0
  8 18  1  0
  8 19  4  0
  8 22  4  0
  9 12  4  0
  9 19  4  0
 10 12  4  0
 10 22  4  0
 11 20  4  0
 11 21  4  0
 12 23  1  0
 13 20  4  0
 13 29  4  0
 14 17  4  0
 14 28  4  0
 15 25  2  0
 16 27  4  0
 17 18  4  0
 20 27  1  0
 24 27  4  0
 26 28  4  0
M  END
$$$$

 Created by Python create_sdf_string function

 29 33  0  0  0  0  0  0  0  0999 V2000
    8.8270   -7.0288   18.4251 C   0  0  0  0  0  0  0  0  0  0  0  0
    9.1576   -4.6236   15.8860 O   0  0  0  0  0  0  0  0  0  0  0  0
    9.1509   -5.9108   17.7177 C   0  0  0  0  0  0  0  0  0  0  0  0
    3.6373   -9.5349   16.0582 N   0  0  0  0  0  0  0  0  0  0  0  0
    9.9275   -4.8001   18.0438 N   0  0  0  0  0  0  0  0  0  0  0  0
    8.5908   -5.7425   16.4412 C   0  0  0  0  0  0  0  0  0  0  0  0
   10.5993   -4.8981   21.6068 C   0  0  0  0  0  0  0  0  0  0  0  0
   10.4258   -3.0106   23.0998 C   0  0  0  0  0  0  0  0  0  0  0  0
   10.2148   -3.4364   25.4200 C   0  0  0  0  0  0  0  0  0  0  0  0
    9.7853   -1.1840   24.4927 C   0  0  0  0  0  0  0  0  0  0  0  0
    5.0276   -8.5227   17.5352 C   0  0  0  0  0  0  0  0  0  0  0  0
    9.8187   -2.0895   25.5800 C   0  0  0  0  0  0  0  0  0  0  0  0
    5.6473   -8.7216   15.3158 C   0  0  0  0  0  0  0  0  0  0  0  0
   10.7581   -3.1233   19.4720 N   0  0  0  0  0  0  0  0  0  0  0  0
    9.9571   -4.0573   16.8866 C   0  0  0  0  0  0  0  0  0  0  0  0
    7.6213   -6.5618   16.0087 C   0  0  0  0  0  0  0  0  0  0  0  0
   10.8583   -2.6527   20.7222 C   0  0  0  0  0  0  0  0  0  0  0  0
   10.6412   -3.5089   21.7936 C   0  0  0  0  0  0  0  0  0  0  0  0
   10.4972   -3.8968   24.1589 C   0  0  0  0  0  0  0  0  0  0  0  0
    5.9260   -8.2736   16.5517 C   0  0  0  0  0  0  0  0  0  0  0  0
    3.8816   -9.1166   17.2493 C   0  0  0  0  0  0  0  0  0  0  0  0
   10.1297   -1.6575   23.2324 C   0  0  0  0  0  0  0  0  0  0  0  0
    9.4684   -1.6929   26.7263 F   0  0  0  0  0  0  0  0  0  0  0  0
    7.7963   -7.7906   17.9837 C   0  0  0  0  0  0  0  0  0  0  0  0
   10.5884   -3.0725   16.7902 O   0  0  0  0  0  0  0  0  0  0  0  0
   10.4323   -5.3494   20.3516 C   0  0  0  0  0  0  0  0  0  0  0  0
    7.1156   -7.5454   16.8218 C   0  0  0  0  0  0  0  0  0  0  0  0
   10.3885   -4.4388   19.2773 C   0  0  0  0  0  0  0  0  0  0  0  0
    4.5160   -9.3822   15.0841 C   0  0  0  0  0  0  0  0  0  0  0  0
  1  3  4  0
  1 24  4  0
  2  6  4  0
  2 15  4  0
  3  5  4  0
  3  6  4  0
  4 21  4  0
  4 29  4  0
  5 15  4  0
  5 28  1  0
  6 16  4  0
  7 18  4  0
  7 26  4  0
  8 18  1  0
  8 19  4  0
  8 22  4  0
  9 12  4  0
  9 19  4  0
 10 12  4  0
 10 22  4  0
 11 20  4  0
 11 21  4  0
 12 23  1  0
 13 20  4  0
 13 29  4  0
 14 17  4  0
 14 28  4  0
 15 25  2  0
 16 27  4  0
 17 18  4  0
 20 27  1  0
 24 27  4  0
 26 28  4  0
M  END
$$$$

 Created by Python create_sdf_string function

 29 33  0  0  0  0  0  0  0  0999 V2000
    8.8270   -7.0288   18.4251 C   0  0  0  0  0  0  0  0  0  0  0  0
    9.1576   -4.6236   15.8860 O   0  0  0  0  0  0  0  0  0  0  0  0
    9.1509   -5.9108   17.7177 C   0  0  0  0  0  0  0  0  0  0  0  0
    3.6373   -9.5349   16.0582 N   0  0  0  0  0  0  0  0  0  0  0  0
    9.9275   -4.8001   18.0438 N   0  0  0  0  0  0  0  0  0  0  0  0
    8.5908   -5.7425   16.4412 C   0  0  0  0  0  0  0  0  0  0  0  0
   10.5993   -4.8981   21.6068 C   0  0  0  0  0  0  0  0  0  0  0  0
   10.4258   -3.0106   23.0998 C   0  0  0  0  0  0  0  0  0  0  0  0
   10.2148   -3.4364   25.4200 C   0  0  0  0  0  0  0  0  0  0  0  0
    9.7853   -1.1840   24.4927 C   0  0  0  0  0  0  0  0  0  0  0  0
    5.0276   -8.5227   17.5352 C   0  0  0  0  0  0  0  0  0  0  0  0
    9.8187   -2.0895   25.5800 C   0  0  0  0  0  0  0  0  0  0  0  0
    5.6473   -8.7216   15.3158 C   0  0  0  0  0  0  0  0  0  0  0  0
   10.7581   -3.1233   19.4720 N   0  0  0  0  0  0  0  0  0  0  0  0
    9.9571   -4.0573   16.8866 C   0  0  0  0  0  0  0  0  0  0  0  0
    7.6213   -6.5618   16.0087 C   0  0  0  0  0  0  0  0  0  0  0  0
   10.8583   -2.6527   20.7222 C   0  0  0  0  0  0  0  0  0  0  0  0
   10.6412   -3.5089   21.7936 C   0  0  0  0  0  0  0  0  0  0  0  0
   10.4972   -3.8968   24.1589 C   0  0  0  0  0  0  0  0  0  0  0  0
    5.9260   -8.2736   16.5517 C   0  0  0  0  0  0  0  0  0  0  0  0
    3.8816   -9.1166   17.2493 C   0  0  0  0  0  0  0  0  0  0  0  0
   10.1297   -1.6575   23.2324 C   0  0  0  0  0  0  0  0  0  0  0  0
    9.4684   -1.6929   26.7263 F   0  0  0  0  0  0  0  0  0  0  0  0
    7.7963   -7.7906   17.9837 C   0  0  0  0  0  0  0  0  0  0  0  0
   10.5884   -3.0725   16.7902 O   0  0  0  0  0  0  0  0  0  0  0  0
   10.4323   -5.3494   20.3516 C   0  0  0  0  0  0  0  0  0  0  0  0
    7.1156   -7.5454   16.8218 C   0  0  0  0  0  0  0  0  0  0  0  0
   10.3885   -4.4388   19.2773 C   0  0  0  0  0  0  0  0  0  0  0  0
    4.5160   -9.3822   15.0841 C   0  0  0  0  0  0  0  0  0  0  0  0
  1  3  4  0
  1 24  4  0
  2  6  4  0
  2 15  4  0
  3  5  4  0
  3  6  4  0
  4 21  4  0
  4 29  4  0
  5 15  4  0
  5 28  1  0
  6 16  4  0
  7 18  4  0
  7 26  4  0
  8 18  1  0
  8 19  4  0
  8 22  4  0
  9 12  4  0
  9 19  4  0
 10 12  4  0
 10 22  4  0
 11 20  4  0
 11 21  4  0
 12 23  1  0
 13 20  4  0
 13 29  4  0
 14 17  4  0
 14 28  4  0
 15 25  2  0
 16 27  4  0
 17 18  4  0
 20 27  1  0
 24 27  4  0
 26 28  4  0
M  END
$$$$

 Created by Python create_sdf_string function

 29 33  0  0  0  0  0  0  0  0999 V2000
    8.8270   -7.0288   18.4251 C   0  0  0  0  0  0  0  0  0  0  0  0
    9.1576   -4.6236   15.8860 O   0  0  0  0  0  0  0  0  0  0  0  0
    9.1509   -5.9108   17.7177 C   0  0  0  0  0  0  0  0  0  0  0  0
    3.6373   -9.5349   16.0582 N   0  0  0  0  0  0  0  0  0  0  0  0
    9.9275   -4.8001   18.0438 N   0  0  0  0  0  0  0  0  0  0  0  0
    8.5908   -5.7425   16.4412 C   0  0  0  0  0  0  0  0  0  0  0  0
   10.5993   -4.8981   21.6068 C   0  0  0  0  0  0  0  0  0  0  0  0
   10.4258   -3.0106   23.0998 C   0  0  0  0  0  0  0  0  0  0  0  0
   10.2148   -3.4364   25.4200 C   0  0  0  0  0  0  0  0  0  0  0  0
    9.7853   -1.1840   24.4927 C   0  0  0  0  0  0  0  0  0  0  0  0
    5.0276   -8.5227   17.5352 C   0  0  0  0  0  0  0  0  0  0  0  0
    9.8187   -2.0895   25.5800 C   0  0  0  0  0  0  0  0  0  0  0  0
    5.6473   -8.7216   15.3158 C   0  0  0  0  0  0  0  0  0  0  0  0
   10.7581   -3.1233   19.4720 N   0  0  0  0  0  0  0  0  0  0  0  0
    9.9571   -4.0573   16.8866 C   0  0  0  0  0  0  0  0  0  0  0  0
    7.6213   -6.5618   16.0087 C   0  0  0  0  0  0  0  0  0  0  0  0
   10.8583   -2.6527   20.7222 C   0  0  0  0  0  0  0  0  0  0  0  0
   10.6412   -3.5089   21.7936 C   0  0  0  0  0  0  0  0  0  0  0  0
   10.4972   -3.8968   24.1589 C   0  0  0  0  0  0  0  0  0  0  0  0
    5.9260   -8.2736   16.5517 C   0  0  0  0  0  0  0  0  0  0  0  0
    3.8816   -9.1166   17.2493 C   0  0  0  0  0  0  0  0  0  0  0  0
   10.1297   -1.6575   23.2324 C   0  0  0  0  0  0  0  0  0  0  0  0
    9.4684   -1.6929   26.7263 F   0  0  0  0  0  0  0  0  0  0  0  0
    7.7963   -7.7906   17.9837 C   0  0  0  0  0  0  0  0  0  0  0  0
   10.5884   -3.0725   16.7902 O   0  0  0  0  0  0  0  0  0  0  0  0
   10.4323   -5.3494   20.3516 C   0  0  0  0  0  0  0  0  0  0  0  0
    7.1156   -7.5454   16.8218 C   0  0  0  0  0  0  0  0  0  0  0  0
   10.3885   -4.4388   19.2773 C   0  0  0  0  0  0  0  0  0  0  0  0
    4.5160   -9.3822   15.0841 C   0  0  0  0  0  0  0  0  0  0  0  0
  1  3  4  0
  1 24  4  0
  2  6  4  0
  2 15  4  0
  3  5  4  0
  3  6  4  0
  4 21  4  0
  4 29  4  0
  5 15  4  0
  5 28  1  0
  6 16  4  0
  7 18  4  0
  7 26  4  0
  8 18  1  0
  8 19  4  0
  8 22  4  0
  9 12  4  0
  9 19  4  0
 10 12  4  0
 10 22  4  0
 11 20  4  0
 11 21  4  0
 12 23  1  0
 13 20  4  0
 13 29  4  0
 14 17  4  0
 14 28  4  0
 15 25  2  0
 16 27  4  0
 17 18  4  0
 20 27  1  0
 24 27  4  0
 26 28  4  0
M  END
$$$$

 Created by Python create_sdf_string function

 29 33  0  0  0  0  0  0  0  0999 V2000
    8.8270   -7.0288   18.4251 C   0  0  0  0  0  0  0  0  0  0  0  0
    9.1576   -4.6236   15.8860 O   0  0  0  0  0  0  0  0  0  0  0  0
    9.1509   -5.9108   17.7177 C   0  0  0  0  0  0  0  0  0  0  0  0
    3.6373   -9.5349   16.0582 N   0  0  0  0  0  0  0  0  0  0  0  0
    9.9275   -4.8001   18.0438 N   0  0  0  0  0  0  0  0  0  0  0  0
    8.5908   -5.7425   16.4412 C   0  0  0  0  0  0  0  0  0  0  0  0
   10.5993   -4.8981   21.6068 C   0  0  0  0  0  0  0  0  0  0  0  0
   10.4258   -3.0106   23.0998 C   0  0  0  0  0  0  0  0  0  0  0  0
   10.2148   -3.4364   25.4200 C   0  0  0  0  0  0  0  0  0  0  0  0
    9.7853   -1.1840   24.4927 C   0  0  0  0  0  0  0  0  0  0  0  0
    5.0276   -8.5227   17.5352 C   0  0  0  0  0  0  0  0  0  0  0  0
    9.8187   -2.0895   25.5800 C   0  0  0  0  0  0  0  0  0  0  0  0
    5.6473   -8.7216   15.3158 C   0  0  0  0  0  0  0  0  0  0  0  0
   10.7581   -3.1233   19.4720 N   0  0  0  0  0  0  0  0  0  0  0  0
    9.9571   -4.0573   16.8866 C   0  0  0  0  0  0  0  0  0  0  0  0
    7.6213   -6.5618   16.0087 C   0  0  0  0  0  0  0  0  0  0  0  0
   10.8583   -2.6527   20.7222 C   0  0  0  0  0  0  0  0  0  0  0  0
   10.6412   -3.5089   21.7936 C   0  0  0  0  0  0  0  0  0  0  0  0
   10.4972   -3.8968   24.1589 C   0  0  0  0  0  0  0  0  0  0  0  0
    5.9260   -8.2736   16.5517 C   0  0  0  0  0  0  0  0  0  0  0  0
    3.8816   -9.1166   17.2493 C   0  0  0  0  0  0  0  0  0  0  0  0
   10.1297   -1.6575   23.2324 C   0  0  0  0  0  0  0  0  0  0  0  0
    9.4684   -1.6929   26.7263 F   0  0  0  0  0  0  0  0  0  0  0  0
    7.7963   -7.7906   17.9837 C   0  0  0  0  0  0  0  0  0  0  0  0
   10.5884   -3.0725   16.7902 O   0  0  0  0  0  0  0  0  0  0  0  0
   10.4323   -5.3494   20.3516 C   0  0  0  0  0  0  0  0  0  0  0  0
    7.1156   -7.5454   16.8218 C   0  0  0  0  0  0  0  0  0  0  0  0
   10.3885   -4.4388   19.2773 C   0  0  0  0  0  0  0  0  0  0  0  0
    4.5160   -9.3822   15.0841 C   0  0  0  0  0  0  0  0  0  0  0  0
  1  3  4  0
  1 24  4  0
  2  6  4  0
  2 15  4  0
  3  5  4  0
  3  6  4  0
  4 21  4  0
  4 29  4  0
  5 15  4  0
  5 28  1  0
  6 16  4  0
  7 18  4  0
  7 26  4  0
  8 18  1  0
  8 19  4  0
  8 22  4  0
  9 12  4  0
  9 19  4  0
 10 12  4  0
 10 22  4  0
 11 20  4  0
 11 21  4  0
 12 23  1  0
 13 20  4  0
 13 29  4  0
 14 17  4  0
 14 28  4  0
 15 25  2  0
 16 27  4  0
 17 18  4  0
 20 27  1  0
 24 27  4  0
 26 28  4  0
M  END
$$$$

 Created by Python create_sdf_string function

 29 33  0  0  0  0  0  0  0  0999 V2000
    8.8270   -7.0288   18.4251 C   0  0  0  0  0  0  0  0  0  0  0  0
    9.1576   -4.6236   15.8860 O   0  0  0  0  0  0  0  0  0  0  0  0
    9.1509   -5.9108   17.7177 C   0  0  0  0  0  0  0  0  0  0  0  0
    3.6373   -9.5349   16.0582 N   0  0  0  0  0  0  0  0  0  0  0  0
    9.9275   -4.8001   18.0438 N   0  0  0  0  0  0  0  0  0  0  0  0
    8.5908   -5.7425   16.4412 C   0  0  0  0  0  0  0  0  0  0  0  0
   10.5993   -4.8981   21.6068 C   0  0  0  0  0  0  0  0  0  0  0  0
   10.4258   -3.0106   23.0998 C   0  0  0  0  0  0  0  0  0  0  0  0
   10.2148   -3.4364   25.4200 C   0  0  0  0  0  0  0  0  0  0  0  0
    9.7853   -1.1840   24.4927 C   0  0  0  0  0  0  0  0  0  0  0  0
    5.0276   -8.5227   17.5352 C   0  0  0  0  0  0  0  0  0  0  0  0
    9.8187   -2.0895   25.5800 C   0  0  0  0  0  0  0  0  0  0  0  0
    5.6473   -8.7216   15.3158 C   0  0  0  0  0  0  0  0  0  0  0  0
   10.7581   -3.1233   19.4720 N   0  0  0  0  0  0  0  0  0  0  0  0
    9.9571   -4.0573   16.8866 C   0  0  0  0  0  0  0  0  0  0  0  0
    7.6213   -6.5618   16.0087 C   0  0  0  0  0  0  0  0  0  0  0  0
   10.8583   -2.6527   20.7222 C   0  0  0  0  0  0  0  0  0  0  0  0
   10.6412   -3.5089   21.7936 C   0  0  0  0  0  0  0  0  0  0  0  0
   10.4972   -3.8968   24.1589 C   0  0  0  0  0  0  0  0  0  0  0  0
    5.9260   -8.2736   16.5517 C   0  0  0  0  0  0  0  0  0  0  0  0
    3.8816   -9.1166   17.2493 C   0  0  0  0  0  0  0  0  0  0  0  0
   10.1297   -1.6575   23.2324 C   0  0  0  0  0  0  0  0  0  0  0  0
    9.4684   -1.6929   26.7263 F   0  0  0  0  0  0  0  0  0  0  0  0
    7.7963   -7.7906   17.9837 C   0  0  0  0  0  0  0  0  0  0  0  0
   10.5884   -3.0725   16.7902 O   0  0  0  0  0  0  0  0  0  0  0  0
   10.4323   -5.3494   20.3516 C   0  0  0  0  0  0  0  0  0  0  0  0
    7.1156   -7.5454   16.8218 C   0  0  0  0  0  0  0  0  0  0  0  0
   10.3885   -4.4388   19.2773 C   0  0  0  0  0  0  0  0  0  0  0  0
    4.5160   -9.3822   15.0841 C   0  0  0  0  0  0  0  0  0  0  0  0
  1  3  4  0
  1 24  4  0
  2  6  4  0
  2 15  4  0
  3  5  4  0
  3  6  4  0
  4 21  4  0
  4 29  4  0
  5 15  4  0
  5 28  1  0
  6 16  4  0
  7 18  4  0
  7 26  4  0
  8 18  1  0
  8 19  4  0
  8 22  4  0
  9 12  4  0
  9 19  4  0
 10 12  4  0
 10 22  4  0
 11 20  4  0
 11 21  4  0
 12 23  1  0
 13 20  4  0
 13 29  4  0
 14 17  4  0
 14 28  4  0
 15 25  2  0
 16 27  4  0
 17 18  4  0
 20 27  1  0
 24 27  4  0
 26 28  4  0
M  END
$$$$

 Created by Python create_sdf_string function

 29 33  0  0  0  0  0  0  0  0999 V2000
    8.8270   -7.0288   18.4251 C   0  0  0  0  0  0  0  0  0  0  0  0
    9.1576   -4.6236   15.8860 O   0  0  0  0  0  0  0  0  0  0  0  0
    9.1509   -5.9108   17.7177 C   0  0  0  0  0  0  0  0  0  0  0  0
    3.6373   -9.5349   16.0582 N   0  0  0  0  0  0  0  0  0  0  0  0
    9.9275   -4.8001   18.0438 N   0  0  0  0  0  0  0  0  0  0  0  0
    8.5908   -5.7425   16.4412 C   0  0  0  0  0  0  0  0  0  0  0  0
   10.5993   -4.8981   21.6068 C   0  0  0  0  0  0  0  0  0  0  0  0
   10.4258   -3.0106   23.0998 C   0  0  0  0  0  0  0  0  0  0  0  0
   10.2148   -3.4364   25.4200 C   0  0  0  0  0  0  0  0  0  0  0  0
    9.7853   -1.1840   24.4927 C   0  0  0  0  0  0  0  0  0  0  0  0
    5.0276   -8.5227   17.5352 C   0  0  0  0  0  0  0  0  0  0  0  0
    9.8187   -2.0895   25.5800 C   0  0  0  0  0  0  0  0  0  0  0  0
    5.6473   -8.7216   15.3158 C   0  0  0  0  0  0  0  0  0  0  0  0
   10.7581   -3.1233   19.4720 N   0  0  0  0  0  0  0  0  0  0  0  0
    9.9571   -4.0573   16.8866 C   0  0  0  0  0  0  0  0  0  0  0  0
    7.6213   -6.5618   16.0087 C   0  0  0  0  0  0  0  0  0  0  0  0
   10.8583   -2.6527   20.7222 C   0  0  0  0  0  0  0  0  0  0  0  0
   10.6412   -3.5089   21.7936 C   0  0  0  0  0  0  0  0  0  0  0  0
   10.4972   -3.8968   24.1589 C   0  0  0  0  0  0  0  0  0  0  0  0
    5.9260   -8.2736   16.5517 C   0  0  0  0  0  0  0  0  0  0  0  0
    3.8816   -9.1166   17.2493 C   0  0  0  0  0  0  0  0  0  0  0  0
   10.1297   -1.6575   23.2324 C   0  0  0  0  0  0  0  0  0  0  0  0
    9.4684   -1.6929   26.7263 F   0  0  0  0  0  0  0  0  0  0  0  0
    7.7963   -7.7906   17.9837 C   0  0  0  0  0  0  0  0  0  0  0  0
   10.5884   -3.0725   16.7902 O   0  0  0  0  0  0  0  0  0  0  0  0
   10.4323   -5.3494   20.3516 C   0  0  0  0  0  0  0  0  0  0  0  0
    7.1156   -7.5454   16.8218 C   0  0  0  0  0  0  0  0  0  0  0  0
   10.3885   -4.4388   19.2773 C   0  0  0  0  0  0  0  0  0  0  0  0
    4.5160   -9.3822   15.0841 C   0  0  0  0  0  0  0  0  0  0  0  0
  1  3  4  0
  1 24  4  0
  2  6  4  0
  2 15  4  0
  3  5  4  0
  3  6  4  0
  4 21  4  0
  4 29  4  0
  5 15  4  0
  5 28  1  0
  6 16  4  0
  7 18  4  0
  7 26  4  0
  8 18  1  0
  8 19  4  0
  8 22  4  0
  9 12  4  0
  9 19  4  0
 10 12  4  0
 10 22  4  0
 11 20  4  0
 11 21  4  0
 12 23  1  0
 13 20  4  0
 13 29  4  0
 14 17  4  0
 14 28  4  0
 15 25  2  0
 16 27  4  0
 17 18  4  0
 20 27  1  0
 24 27  4  0
 26 28  4  0
M  END
$$$$

 Created by Python create_sdf_string function

 29 33  0  0  0  0  0  0  0  0999 V2000
    8.8270   -7.0288   18.4251 C   0  0  0  0  0  0  0  0  0  0  0  0
    9.1576   -4.6236   15.8860 O   0  0  0  0  0  0  0  0  0  0  0  0
    9.1509   -5.9108   17.7177 C   0  0  0  0  0  0  0  0  0  0  0  0
    3.6373   -9.5349   16.0582 N   0  0  0  0  0  0  0  0  0  0  0  0
    9.9275   -4.8001   18.0438 N   0  0  0  0  0  0  0  0  0  0  0  0
    8.5908   -5.7425   16.4412 C   0  0  0  0  0  0  0  0  0  0  0  0
   10.5993   -4.8981   21.6068 C   0  0  0  0  0  0  0  0  0  0  0  0
   10.4258   -3.0106   23.0998 C   0  0  0  0  0  0  0  0  0  0  0  0
   10.2148   -3.4364   25.4200 C   0  0  0  0  0  0  0  0  0  0  0  0
    9.7853   -1.1840   24.4927 C   0  0  0  0  0  0  0  0  0  0  0  0
    5.0276   -8.5227   17.5352 C   0  0  0  0  0  0  0  0  0  0  0  0
    9.8187   -2.0895   25.5800 C   0  0  0  0  0  0  0  0  0  0  0  0
    5.6473   -8.7216   15.3158 C   0  0  0  0  0  0  0  0  0  0  0  0
   10.7581   -3.1233   19.4720 N   0  0  0  0  0  0  0  0  0  0  0  0
    9.9571   -4.0573   16.8866 C   0  0  0  0  0  0  0  0  0  0  0  0
    7.6213   -6.5618   16.0087 C   0  0  0  0  0  0  0  0  0  0  0  0
   10.8583   -2.6527   20.7222 C   0  0  0  0  0  0  0  0  0  0  0  0
   10.6412   -3.5089   21.7936 C   0  0  0  0  0  0  0  0  0  0  0  0
   10.4972   -3.8968   24.1589 C   0  0  0  0  0  0  0  0  0  0  0  0
    5.9260   -8.2736   16.5517 C   0  0  0  0  0  0  0  0  0  0  0  0
    3.8816   -9.1166   17.2493 C   0  0  0  0  0  0  0  0  0  0  0  0
   10.1297   -1.6575   23.2324 C   0  0  0  0  0  0  0  0  0  0  0  0
    9.4684   -1.6929   26.7263 F   0  0  0  0  0  0  0  0  0  0  0  0
    7.7963   -7.7906   17.9837 C   0  0  0  0  0  0  0  0  0  0  0  0
   10.5884   -3.0725   16.7902 O   0  0  0  0  0  0  0  0  0  0  0  0
   10.4323   -5.3494   20.3516 C   0  0  0  0  0  0  0  0  0  0  0  0
    7.1156   -7.5454   16.8218 C   0  0  0  0  0  0  0  0  0  0  0  0
   10.3885   -4.4388   19.2773 C   0  0  0  0  0  0  0  0  0  0  0  0
    4.5160   -9.3822   15.0841 C   0  0  0  0  0  0  0  0  0  0  0  0
  1  3  4  0
  1 24  4  0
  2  6  4  0
  2 15  4  0
  3  5  4  0
  3  6  4  0
  4 21  4  0
  4 29  4  0
  5 15  4  0
  5 28  1  0
  6 16  4  0
  7 18  4  0
  7 26  4  0
  8 18  1  0
  8 19  4  0
  8 22  4  0
  9 12  4  0
  9 19  4  0
 10 12  4  0
 10 22  4  0
 11 20  4  0
 11 21  4  0
 12 23  1  0
 13 20  4  0
 13 29  4  0
 14 17  4  0
 14 28  4  0
 15 25  2  0
 16 27  4  0
 17 18  4  0
 20 27  1  0
 24 27  4  0
 26 28  4  0
M  END
$$$$

 Created by Python create_sdf_string function

 29 33  0  0  0  0  0  0  0  0999 V2000
    8.8270   -7.0288   18.4251 C   0  0  0  0  0  0  0  0  0  0  0  0
    9.1576   -4.6236   15.8860 O   0  0  0  0  0  0  0  0  0  0  0  0
    9.1509   -5.9108   17.7177 C   0  0  0  0  0  0  0  0  0  0  0  0
    3.6373   -9.5349   16.0582 N   0  0  0  0  0  0  0  0  0  0  0  0
    9.9275   -4.8001   18.0438 N   0  0  0  0  0  0  0  0  0  0  0  0
    8.5908   -5.7425   16.4412 C   0  0  0  0  0  0  0  0  0  0  0  0
   10.5993   -4.8981   21.6068 C   0  0  0  0  0  0  0  0  0  0  0  0
   10.4258   -3.0106   23.0998 C   0  0  0  0  0  0  0  0  0  0  0  0
   10.2148   -3.4364   25.4200 C   0  0  0  0  0  0  0  0  0  0  0  0
    9.7853   -1.1840   24.4927 C   0  0  0  0  0  0  0  0  0  0  0  0
    5.0276   -8.5227   17.5352 C   0  0  0  0  0  0  0  0  0  0  0  0
    9.8187   -2.0895   25.5800 C   0  0  0  0  0  0  0  0  0  0  0  0
    5.6473   -8.7216   15.3158 C   0  0  0  0  0  0  0  0  0  0  0  0
   10.7581   -3.1233   19.4720 N   0  0  0  0  0  0  0  0  0  0  0  0
    9.9571   -4.0573   16.8866 C   0  0  0  0  0  0  0  0  0  0  0  0
    7.6213   -6.5618   16.0087 C   0  0  0  0  0  0  0  0  0  0  0  0
   10.8583   -2.6527   20.7222 C   0  0  0  0  0  0  0  0  0  0  0  0
   10.6412   -3.5089   21.7936 C   0  0  0  0  0  0  0  0  0  0  0  0
   10.4972   -3.8968   24.1589 C   0  0  0  0  0  0  0  0  0  0  0  0
    5.9260   -8.2736   16.5517 C   0  0  0  0  0  0  0  0  0  0  0  0
    3.8816   -9.1166   17.2493 C   0  0  0  0  0  0  0  0  0  0  0  0
   10.1297   -1.6575   23.2324 C   0  0  0  0  0  0  0  0  0  0  0  0
    9.4684   -1.6929   26.7263 F   0  0  0  0  0  0  0  0  0  0  0  0
    7.7963   -7.7906   17.9837 C   0  0  0  0  0  0  0  0  0  0  0  0
   10.5884   -3.0725   16.7902 O   0  0  0  0  0  0  0  0  0  0  0  0
   10.4323   -5.3494   20.3516 C   0  0  0  0  0  0  0  0  0  0  0  0
    7.1156   -7.5454   16.8218 C   0  0  0  0  0  0  0  0  0  0  0  0
   10.3885   -4.4388   19.2773 C   0  0  0  0  0  0  0  0  0  0  0  0
    4.5160   -9.3822   15.0841 C   0  0  0  0  0  0  0  0  0  0  0  0
  1  3  4  0
  1 24  4  0
  2  6  4  0
  2 15  4  0
  3  5  4  0
  3  6  4  0
  4 21  4  0
  4 29  4  0
  5 15  4  0
  5 28  1  0
  6 16  4  0
  7 18  4  0
  7 26  4  0
  8 18  1  0
  8 19  4  0
  8 22  4  0
  9 12  4  0
  9 19  4  0
 10 12  4  0
 10 22  4  0
 11 20  4  0
 11 21  4  0
 12 23  1  0
 13 20  4  0
 13 29  4  0
 14 17  4  0
 14 28  4  0
 15 25  2  0
 16 27  4  0
 17 18  4  0
 20 27  1  0
 24 27  4  0
 26 28  4  0
M  END
$$$$

 Created by Python create_sdf_string function

 29 33  0  0  0  0  0  0  0  0999 V2000
    8.8270   -7.0288   18.4251 C   0  0  0  0  0  0  0  0  0  0  0  0
    9.1576   -4.6236   15.8860 O   0  0  0  0  0  0  0  0  0  0  0  0
    9.1509   -5.9108   17.7177 C   0  0  0  0  0  0  0  0  0  0  0  0
    3.6373   -9.5349   16.0582 N   0  0  0  0  0  0  0  0  0  0  0  0
    9.9275   -4.8001   18.0438 N   0  0  0  0  0  0  0  0  0  0  0  0
    8.5908   -5.7425   16.4412 C   0  0  0  0  0  0  0  0  0  0  0  0
   10.5993   -4.8981   21.6068 C   0  0  0  0  0  0  0  0  0  0  0  0
   10.4258   -3.0106   23.0998 C   0  0  0  0  0  0  0  0  0  0  0  0
   10.2148   -3.4364   25.4200 C   0  0  0  0  0  0  0  0  0  0  0  0
    9.7853   -1.1840   24.4927 C   0  0  0  0  0  0  0  0  0  0  0  0
    5.0276   -8.5227   17.5352 C   0  0  0  0  0  0  0  0  0  0  0  0
    9.8187   -2.0895   25.5800 C   0  0  0  0  0  0  0  0  0  0  0  0
    5.6473   -8.7216   15.3158 C   0  0  0  0  0  0  0  0  0  0  0  0
   10.7581   -3.1233   19.4720 N   0  0  0  0  0  0  0  0  0  0  0  0
    9.9571   -4.0573   16.8866 C   0  0  0  0  0  0  0  0  0  0  0  0
    7.6213   -6.5618   16.0087 C   0  0  0  0  0  0  0  0  0  0  0  0
   10.8583   -2.6527   20.7222 C   0  0  0  0  0  0  0  0  0  0  0  0
   10.6412   -3.5089   21.7936 C   0  0  0  0  0  0  0  0  0  0  0  0
   10.4972   -3.8968   24.1589 C   0  0  0  0  0  0  0  0  0  0  0  0
    5.9260   -8.2736   16.5517 C   0  0  0  0  0  0  0  0  0  0  0  0
    3.8816   -9.1166   17.2493 C   0  0  0  0  0  0  0  0  0  0  0  0
   10.1297   -1.6575   23.2324 C   0  0  0  0  0  0  0  0  0  0  0  0
    9.4684   -1.6929   26.7263 F   0  0  0  0  0  0  0  0  0  0  0  0
    7.7963   -7.7906   17.9837 C   0  0  0  0  0  0  0  0  0  0  0  0
   10.5884   -3.0725   16.7902 O   0  0  0  0  0  0  0  0  0  0  0  0
   10.4323   -5.3494   20.3516 C   0  0  0  0  0  0  0  0  0  0  0  0
    7.1156   -7.5454   16.8218 C   0  0  0  0  0  0  0  0  0  0  0  0
   10.3885   -4.4388   19.2773 C   0  0  0  0  0  0  0  0  0  0  0  0
    4.5160   -9.3822   15.0841 C   0  0  0  0  0  0  0  0  0  0  0  0
  1  3  4  0
  1 24  4  0
  2  6  4  0
  2 15  4  0
  3  5  4  0
  3  6  4  0
  4 21  4  0
  4 29  4  0
  5 15  4  0
  5 28  1  0
  6 16  4  0
  7 18  4  0
  7 26  4  0
  8 18  1  0
  8 19  4  0
  8 22  4  0
  9 12  4  0
  9 19  4  0
 10 12  4  0
 10 22  4  0
 11 20  4  0
 11 21  4  0
 12 23  1  0
 13 20  4  0
 13 29  4  0
 14 17  4  0
 14 28  4  0
 15 25  2  0
 16 27  4  0
 17 18  4  0
 20 27  1  0
 24 27  4  0
 26 28  4  0
M  END
$$$$

 Created by Python create_sdf_string function

 29 33  0  0  0  0  0  0  0  0999 V2000
    8.8270   -7.0288   18.4251 C   0  0  0  0  0  0  0  0  0  0  0  0
    9.1576   -4.6236   15.8860 O   0  0  0  0  0  0  0  0  0  0  0  0
    9.1509   -5.9108   17.7177 C   0  0  0  0  0  0  0  0  0  0  0  0
    3.6373   -9.5349   16.0582 N   0  0  0  0  0  0  0  0  0  0  0  0
    9.9275   -4.8001   18.0438 N   0  0  0  0  0  0  0  0  0  0  0  0
    8.5908   -5.7425   16.4412 C   0  0  0  0  0  0  0  0  0  0  0  0
   10.5993   -4.8981   21.6068 C   0  0  0  0  0  0  0  0  0  0  0  0
   10.4258   -3.0106   23.0998 C   0  0  0  0  0  0  0  0  0  0  0  0
   10.2148   -3.4364   25.4200 C   0  0  0  0  0  0  0  0  0  0  0  0
    9.7853   -1.1840   24.4927 C   0  0  0  0  0  0  0  0  0  0  0  0
    5.0276   -8.5227   17.5352 C   0  0  0  0  0  0  0  0  0  0  0  0
    9.8187   -2.0895   25.5800 C   0  0  0  0  0  0  0  0  0  0  0  0
    5.6473   -8.7216   15.3158 C   0  0  0  0  0  0  0  0  0  0  0  0
   10.7581   -3.1233   19.4720 N   0  0  0  0  0  0  0  0  0  0  0  0
    9.9571   -4.0573   16.8866 C   0  0  0  0  0  0  0  0  0  0  0  0
    7.6213   -6.5618   16.0087 C   0  0  0  0  0  0  0  0  0  0  0  0
   10.8583   -2.6527   20.7222 C   0  0  0  0  0  0  0  0  0  0  0  0
   10.6412   -3.5089   21.7936 C   0  0  0  0  0  0  0  0  0  0  0  0
   10.4972   -3.8968   24.1589 C   0  0  0  0  0  0  0  0  0  0  0  0
    5.9260   -8.2736   16.5517 C   0  0  0  0  0  0  0  0  0  0  0  0
    3.8816   -9.1166   17.2493 C   0  0  0  0  0  0  0  0  0  0  0  0
   10.1297   -1.6575   23.2324 C   0  0  0  0  0  0  0  0  0  0  0  0
    9.4684   -1.6929   26.7263 F   0  0  0  0  0  0  0  0  0  0  0  0
    7.7963   -7.7906   17.9837 C   0  0  0  0  0  0  0  0  0  0  0  0
   10.5884   -3.0725   16.7902 O   0  0  0  0  0  0  0  0  0  0  0  0
   10.4323   -5.3494   20.3516 C   0  0  0  0  0  0  0  0  0  0  0  0
    7.1156   -7.5454   16.8218 C   0  0  0  0  0  0  0  0  0  0  0  0
   10.3885   -4.4388   19.2773 C   0  0  0  0  0  0  0  0  0  0  0  0
    4.5160   -9.3822   15.0841 C   0  0  0  0  0  0  0  0  0  0  0  0
  1  3  4  0
  1 24  4  0
  2  6  4  0
  2 15  4  0
  3  5  4  0
  3  6  4  0
  4 21  4  0
  4 29  4  0
  5 15  4  0
  5 28  1  0
  6 16  4  0
  7 18  4  0
  7 26  4  0
  8 18  1  0
  8 19  4  0
  8 22  4  0
  9 12  4  0
  9 19  4  0
 10 12  4  0
 10 22  4  0
 11 20  4  0
 11 21  4  0
 12 23  1  0
 13 20  4  0
 13 29  4  0
 14 17  4  0
 14 28  4  0
 15 25  2  0
 16 27  4  0
 17 18  4  0
 20 27  1  0
 24 27  4  0
 26 28  4  0
M  END
$$$$

 Created by Python create_sdf_string function

 29 33  0  0  0  0  0  0  0  0999 V2000
    8.8270   -7.0288   18.4251 C   0  0  0  0  0  0  0  0  0  0  0  0
    9.1576   -4.6236   15.8860 O   0  0  0  0  0  0  0  0  0  0  0  0
    9.1509   -5.9108   17.7177 C   0  0  0  0  0  0  0  0  0  0  0  0
    3.6373   -9.5349   16.0582 N   0  0  0  0  0  0  0  0  0  0  0  0
    9.9275   -4.8001   18.0438 N   0  0  0  0  0  0  0  0  0  0  0  0
    8.5908   -5.7425   16.4412 C   0  0  0  0  0  0  0  0  0  0  0  0
   10.5993   -4.8981   21.6068 C   0  0  0  0  0  0  0  0  0  0  0  0
   10.4258   -3.0106   23.0998 C   0  0  0  0  0  0  0  0  0  0  0  0
   10.2148   -3.4364   25.4200 C   0  0  0  0  0  0  0  0  0  0  0  0
    9.7853   -1.1840   24.4927 C   0  0  0  0  0  0  0  0  0  0  0  0
    5.0276   -8.5227   17.5352 C   0  0  0  0  0  0  0  0  0  0  0  0
    9.8187   -2.0895   25.5800 C   0  0  0  0  0  0  0  0  0  0  0  0
    5.6473   -8.7216   15.3158 C   0  0  0  0  0  0  0  0  0  0  0  0
   10.7581   -3.1233   19.4720 N   0  0  0  0  0  0  0  0  0  0  0  0
    9.9571   -4.0573   16.8866 C   0  0  0  0  0  0  0  0  0  0  0  0
    7.6213   -6.5618   16.0087 C   0  0  0  0  0  0  0  0  0  0  0  0
   10.8583   -2.6527   20.7222 C   0  0  0  0  0  0  0  0  0  0  0  0
   10.6412   -3.5089   21.7936 C   0  0  0  0  0  0  0  0  0  0  0  0
   10.4972   -3.8968   24.1589 C   0  0  0  0  0  0  0  0  0  0  0  0
    5.9260   -8.2736   16.5517 C   0  0  0  0  0  0  0  0  0  0  0  0
    3.8816   -9.1166   17.2493 C   0  0  0  0  0  0  0  0  0  0  0  0
   10.1297   -1.6575   23.2324 C   0  0  0  0  0  0  0  0  0  0  0  0
    9.4684   -1.6929   26.7263 F   0  0  0  0  0  0  0  0  0  0  0  0
    7.7963   -7.7906   17.9837 C   0  0  0  0  0  0  0  0  0  0  0  0
   10.5884   -3.0725   16.7902 O   0  0  0  0  0  0  0  0  0  0  0  0
   10.4323   -5.3494   20.3516 C   0  0  0  0  0  0  0  0  0  0  0  0
    7.1156   -7.5454   16.8218 C   0  0  0  0  0  0  0  0  0  0  0  0
   10.3885   -4.4388   19.2773 C   0  0  0  0  0  0  0  0  0  0  0  0
    4.5160   -9.3822   15.0841 C   0  0  0  0  0  0  0  0  0  0  0  0
  1  3  4  0
  1 24  4  0
  2  6  4  0
  2 15  4  0
  3  5  4  0
  3  6  4  0
  4 21  4  0
  4 29  4  0
  5 15  4  0
  5 28  1  0
  6 16  4  0
  7 18  4  0
  7 26  4  0
  8 18  1  0
  8 19  4  0
  8 22  4  0
  9 12  4  0
  9 19  4  0
 10 12  4  0
 10 22  4  0
 11 20  4  0
 11 21  4  0
 12 23  1  0
 13 20  4  0
 13 29  4  0
 14 17  4  0
 14 28  4  0
 15 25  2  0
 16 27  4  0
 17 18  4  0
 20 27  1  0
 24 27  4  0
 26 28  4  0
M  END
$$$$

 Created by Python create_sdf_string function

 29 33  0  0  0  0  0  0  0  0999 V2000
    8.8270   -7.0288   18.4251 C   0  0  0  0  0  0  0  0  0  0  0  0
    9.1576   -4.6236   15.8860 O   0  0  0  0  0  0  0  0  0  0  0  0
    9.1509   -5.9108   17.7177 C   0  0  0  0  0  0  0  0  0  0  0  0
    3.6373   -9.5349   16.0582 N   0  0  0  0  0  0  0  0  0  0  0  0
    9.9275   -4.8001   18.0438 N   0  0  0  0  0  0  0  0  0  0  0  0
    8.5908   -5.7425   16.4412 C   0  0  0  0  0  0  0  0  0  0  0  0
   10.5993   -4.8981   21.6068 C   0  0  0  0  0  0  0  0  0  0  0  0
   10.4258   -3.0106   23.0998 C   0  0  0  0  0  0  0  0  0  0  0  0
   10.2148   -3.4364   25.4200 C   0  0  0  0  0  0  0  0  0  0  0  0
    9.7853   -1.1840   24.4927 C   0  0  0  0  0  0  0  0  0  0  0  0
    5.0276   -8.5227   17.5352 C   0  0  0  0  0  0  0  0  0  0  0  0
    9.8187   -2.0895   25.5800 C   0  0  0  0  0  0  0  0  0  0  0  0
    5.6473   -8.7216   15.3158 C   0  0  0  0  0  0  0  0  0  0  0  0
   10.7581   -3.1233   19.4720 N   0  0  0  0  0  0  0  0  0  0  0  0
    9.9571   -4.0573   16.8866 C   0  0  0  0  0  0  0  0  0  0  0  0
    7.6213   -6.5618   16.0087 C   0  0  0  0  0  0  0  0  0  0  0  0
   10.8583   -2.6527   20.7222 C   0  0  0  0  0  0  0  0  0  0  0  0
   10.6412   -3.5089   21.7936 C   0  0  0  0  0  0  0  0  0  0  0  0
   10.4972   -3.8968   24.1589 C   0  0  0  0  0  0  0  0  0  0  0  0
    5.9260   -8.2736   16.5517 C   0  0  0  0  0  0  0  0  0  0  0  0
    3.8816   -9.1166   17.2493 C   0  0  0  0  0  0  0  0  0  0  0  0
   10.1297   -1.6575   23.2324 C   0  0  0  0  0  0  0  0  0  0  0  0
    9.4684   -1.6929   26.7263 F   0  0  0  0  0  0  0  0  0  0  0  0
    7.7963   -7.7906   17.9837 C   0  0  0  0  0  0  0  0  0  0  0  0
   10.5884   -3.0725   16.7902 O   0  0  0  0  0  0  0  0  0  0  0  0
   10.4323   -5.3494   20.3516 C   0  0  0  0  0  0  0  0  0  0  0  0
    7.1156   -7.5454   16.8218 C   0  0  0  0  0  0  0  0  0  0  0  0
   10.3885   -4.4388   19.2773 C   0  0  0  0  0  0  0  0  0  0  0  0
    4.5160   -9.3822   15.0841 C   0  0  0  0  0  0  0  0  0  0  0  0
  1  3  4  0
  1 24  4  0
  2  6  4  0
  2 15  4  0
  3  5  4  0
  3  6  4  0
  4 21  4  0
  4 29  4  0
  5 15  4  0
  5 28  1  0
  6 16  4  0
  7 18  4  0
  7 26  4  0
  8 18  1  0
  8 19  4  0
  8 22  4  0
  9 12  4  0
  9 19  4  0
 10 12  4  0
 10 22  4  0
 11 20  4  0
 11 21  4  0
 12 23  1  0
 13 20  4  0
 13 29  4  0
 14 17  4  0
 14 28  4  0
 15 25  2  0
 16 27  4  0
 17 18  4  0
 20 27  1  0
 24 27  4  0
 26 28  4  0
M  END
$$$$

 Created by Python create_sdf_string function

 29 33  0  0  0  0  0  0  0  0999 V2000
    8.8270   -7.0288   18.4251 C   0  0  0  0  0  0  0  0  0  0  0  0
    9.1576   -4.6236   15.8860 O   0  0  0  0  0  0  0  0  0  0  0  0
    9.1509   -5.9108   17.7177 C   0  0  0  0  0  0  0  0  0  0  0  0
    3.6373   -9.5349   16.0582 N   0  0  0  0  0  0  0  0  0  0  0  0
    9.9275   -4.8001   18.0438 N   0  0  0  0  0  0  0  0  0  0  0  0
    8.5908   -5.7425   16.4412 C   0  0  0  0  0  0  0  0  0  0  0  0
   10.5993   -4.8981   21.6068 C   0  0  0  0  0  0  0  0  0  0  0  0
   10.4258   -3.0106   23.0998 C   0  0  0  0  0  0  0  0  0  0  0  0
   10.2148   -3.4364   25.4200 C   0  0  0  0  0  0  0  0  0  0  0  0
    9.7853   -1.1840   24.4927 C   0  0  0  0  0  0  0  0  0  0  0  0
    5.0276   -8.5227   17.5352 C   0  0  0  0  0  0  0  0  0  0  0  0
    9.8187   -2.0895   25.5800 C   0  0  0  0  0  0  0  0  0  0  0  0
    5.6473   -8.7216   15.3158 C   0  0  0  0  0  0  0  0  0  0  0  0
   10.7581   -3.1233   19.4720 N   0  0  0  0  0  0  0  0  0  0  0  0
    9.9571   -4.0573   16.8866 C   0  0  0  0  0  0  0  0  0  0  0  0
    7.6213   -6.5618   16.0087 C   0  0  0  0  0  0  0  0  0  0  0  0
   10.8583   -2.6527   20.7222 C   0  0  0  0  0  0  0  0  0  0  0  0
   10.6412   -3.5089   21.7936 C   0  0  0  0  0  0  0  0  0  0  0  0
   10.4972   -3.8968   24.1589 C   0  0  0  0  0  0  0  0  0  0  0  0
    5.9260   -8.2736   16.5517 C   0  0  0  0  0  0  0  0  0  0  0  0
    3.8816   -9.1166   17.2493 C   0  0  0  0  0  0  0  0  0  0  0  0
   10.1297   -1.6575   23.2324 C   0  0  0  0  0  0  0  0  0  0  0  0
    9.4684   -1.6929   26.7263 F   0  0  0  0  0  0  0  0  0  0  0  0
    7.7963   -7.7906   17.9837 C   0  0  0  0  0  0  0  0  0  0  0  0
   10.5884   -3.0725   16.7902 O   0  0  0  0  0  0  0  0  0  0  0  0
   10.4323   -5.3494   20.3516 C   0  0  0  0  0  0  0  0  0  0  0  0
    7.1156   -7.5454   16.8218 C   0  0  0  0  0  0  0  0  0  0  0  0
   10.3885   -4.4388   19.2773 C   0  0  0  0  0  0  0  0  0  0  0  0
    4.5160   -9.3822   15.0841 C   0  0  0  0  0  0  0  0  0  0  0  0
  1  3  4  0
  1 24  4  0
  2  6  4  0
  2 15  4  0
  3  5  4  0
  3  6  4  0
  4 21  4  0
  4 29  4  0
  5 15  4  0
  5 28  1  0
  6 16  4  0
  7 18  4  0
  7 26  4  0
  8 18  1  0
  8 19  4  0
  8 22  4  0
  9 12  4  0
  9 19  4  0
 10 12  4  0
 10 22  4  0
 11 20  4  0
 11 21  4  0
 12 23  1  0
 13 20  4  0
 13 29  4  0
 14 17  4  0
 14 28  4  0
 15 25  2  0
 16 27  4  0
 17 18  4  0
 20 27  1  0
 24 27  4  0
 26 28  4  0
M  END
$$$$

 Created by Python create_sdf_string function

 29 33  0  0  0  0  0  0  0  0999 V2000
    8.8270   -7.0288   18.4251 C   0  0  0  0  0  0  0  0  0  0  0  0
    9.1576   -4.6236   15.8860 O   0  0  0  0  0  0  0  0  0  0  0  0
    9.1509   -5.9108   17.7177 C   0  0  0  0  0  0  0  0  0  0  0  0
    3.6373   -9.5349   16.0582 N   0  0  0  0  0  0  0  0  0  0  0  0
    9.9275   -4.8001   18.0438 N   0  0  0  0  0  0  0  0  0  0  0  0
    8.5908   -5.7425   16.4412 C   0  0  0  0  0  0  0  0  0  0  0  0
   10.5993   -4.8981   21.6068 C   0  0  0  0  0  0  0  0  0  0  0  0
   10.4258   -3.0106   23.0998 C   0  0  0  0  0  0  0  0  0  0  0  0
   10.2148   -3.4364   25.4200 C   0  0  0  0  0  0  0  0  0  0  0  0
    9.7853   -1.1840   24.4927 C   0  0  0  0  0  0  0  0  0  0  0  0
    5.0276   -8.5227   17.5352 C   0  0  0  0  0  0  0  0  0  0  0  0
    9.8187   -2.0895   25.5800 C   0  0  0  0  0  0  0  0  0  0  0  0
    5.6473   -8.7216   15.3158 C   0  0  0  0  0  0  0  0  0  0  0  0
   10.7581   -3.1233   19.4720 N   0  0  0  0  0  0  0  0  0  0  0  0
    9.9571   -4.0573   16.8866 C   0  0  0  0  0  0  0  0  0  0  0  0
    7.6213   -6.5618   16.0087 C   0  0  0  0  0  0  0  0  0  0  0  0
   10.8583   -2.6527   20.7222 C   0  0  0  0  0  0  0  0  0  0  0  0
   10.6412   -3.5089   21.7936 C   0  0  0  0  0  0  0  0  0  0  0  0
   10.4972   -3.8968   24.1589 C   0  0  0  0  0  0  0  0  0  0  0  0
    5.9260   -8.2736   16.5517 C   0  0  0  0  0  0  0  0  0  0  0  0
    3.8816   -9.1166   17.2493 C   0  0  0  0  0  0  0  0  0  0  0  0
   10.1297   -1.6575   23.2324 C   0  0  0  0  0  0  0  0  0  0  0  0
    9.4684   -1.6929   26.7263 F   0  0  0  0  0  0  0  0  0  0  0  0
    7.7963   -7.7906   17.9837 C   0  0  0  0  0  0  0  0  0  0  0  0
   10.5884   -3.0725   16.7902 O   0  0  0  0  0  0  0  0  0  0  0  0
   10.4323   -5.3494   20.3516 C   0  0  0  0  0  0  0  0  0  0  0  0
    7.1156   -7.5454   16.8218 C   0  0  0  0  0  0  0  0  0  0  0  0
   10.3885   -4.4388   19.2773 C   0  0  0  0  0  0  0  0  0  0  0  0
    4.5160   -9.3822   15.0841 C   0  0  0  0  0  0  0  0  0  0  0  0
  1  3  4  0
  1 24  4  0
  2  6  4  0
  2 15  4  0
  3  5  4  0
  3  6  4  0
  4 21  4  0
  4 29  4  0
  5 15  4  0
  5 28  1  0
  6 16  4  0
  7 18  4  0
  7 26  4  0
  8 18  1  0
  8 19  4  0
  8 22  4  0
  9 12  4  0
  9 19  4  0
 10 12  4  0
 10 22  4  0
 11 20  4  0
 11 21  4  0
 12 23  1  0
 13 20  4  0
 13 29  4  0
 14 17  4  0
 14 28  4  0
 15 25  2  0
 16 27  4  0
 17 18  4  0
 20 27  1  0
 24 27  4  0
 26 28  4  0
M  END
$$$$

 Created by Python create_sdf_string function

 29 33  0  0  0  0  0  0  0  0999 V2000
    8.8270   -7.0288   18.4251 C   0  0  0  0  0  0  0  0  0  0  0  0
    9.1576   -4.6236   15.8860 O   0  0  0  0  0  0  0  0  0  0  0  0
    9.1509   -5.9108   17.7177 C   0  0  0  0  0  0  0  0  0  0  0  0
    3.6373   -9.5349   16.0582 N   0  0  0  0  0  0  0  0  0  0  0  0
    9.9275   -4.8001   18.0438 N   0  0  0  0  0  0  0  0  0  0  0  0
    8.5908   -5.7425   16.4412 C   0  0  0  0  0  0  0  0  0  0  0  0
   10.5993   -4.8981   21.6068 C   0  0  0  0  0  0  0  0  0  0  0  0
   10.4258   -3.0106   23.0998 C   0  0  0  0  0  0  0  0  0  0  0  0
   10.2148   -3.4364   25.4200 C   0  0  0  0  0  0  0  0  0  0  0  0
    9.7853   -1.1840   24.4927 C   0  0  0  0  0  0  0  0  0  0  0  0
    5.0276   -8.5227   17.5352 C   0  0  0  0  0  0  0  0  0  0  0  0
    9.8187   -2.0895   25.5800 C   0  0  0  0  0  0  0  0  0  0  0  0
    5.6473   -8.7216   15.3158 C   0  0  0  0  0  0  0  0  0  0  0  0
   10.7581   -3.1233   19.4720 N   0  0  0  0  0  0  0  0  0  0  0  0
    9.9571   -4.0573   16.8866 C   0  0  0  0  0  0  0  0  0  0  0  0
    7.6213   -6.5618   16.0087 C   0  0  0  0  0  0  0  0  0  0  0  0
   10.8583   -2.6527   20.7222 C   0  0  0  0  0  0  0  0  0  0  0  0
   10.6412   -3.5089   21.7936 C   0  0  0  0  0  0  0  0  0  0  0  0
   10.4972   -3.8968   24.1589 C   0  0  0  0  0  0  0  0  0  0  0  0
    5.9260   -8.2736   16.5517 C   0  0  0  0  0  0  0  0  0  0  0  0
    3.8816   -9.1166   17.2493 C   0  0  0  0  0  0  0  0  0  0  0  0
   10.1297   -1.6575   23.2324 C   0  0  0  0  0  0  0  0  0  0  0  0
    9.4684   -1.6929   26.7263 F   0  0  0  0  0  0  0  0  0  0  0  0
    7.7963   -7.7906   17.9837 C   0  0  0  0  0  0  0  0  0  0  0  0
   10.5884   -3.0725   16.7902 O   0  0  0  0  0  0  0  0  0  0  0  0
   10.4323   -5.3494   20.3516 C   0  0  0  0  0  0  0  0  0  0  0  0
    7.1156   -7.5454   16.8218 C   0  0  0  0  0  0  0  0  0  0  0  0
   10.3885   -4.4388   19.2773 C   0  0  0  0  0  0  0  0  0  0  0  0
    4.5160   -9.3822   15.0841 C   0  0  0  0  0  0  0  0  0  0  0  0
  1  3  4  0
  1 24  4  0
  2  6  4  0
  2 15  4  0
  3  5  4  0
  3  6  4  0
  4 21  4  0
  4 29  4  0
  5 15  4  0
  5 28  1  0
  6 16  4  0
  7 18  4  0
  7 26  4  0
  8 18  1  0
  8 19  4  0
  8 22  4  0
  9 12  4  0
  9 19  4  0
 10 12  4  0
 10 22  4  0
 11 20  4  0
 11 21  4  0
 12 23  1  0
 13 20  4  0
 13 29  4  0
 14 17  4  0
 14 28  4  0
 15 25  2  0
 16 27  4  0
 17 18  4  0
 20 27  1  0
 24 27  4  0
 26 28  4  0
M  END
$$$$

 Created by Python create_sdf_string function

 29 33  0  0  0  0  0  0  0  0999 V2000
    8.8270   -7.0288   18.4251 C   0  0  0  0  0  0  0  0  0  0  0  0
    9.1576   -4.6236   15.8860 O   0  0  0  0  0  0  0  0  0  0  0  0
    9.1509   -5.9108   17.7177 C   0  0  0  0  0  0  0  0  0  0  0  0
    3.6373   -9.5349   16.0582 N   0  0  0  0  0  0  0  0  0  0  0  0
    9.9275   -4.8001   18.0438 N   0  0  0  0  0  0  0  0  0  0  0  0
    8.5908   -5.7425   16.4412 C   0  0  0  0  0  0  0  0  0  0  0  0
   10.5993   -4.8981   21.6068 C   0  0  0  0  0  0  0  0  0  0  0  0
   10.4258   -3.0106   23.0998 C   0  0  0  0  0  0  0  0  0  0  0  0
   10.2148   -3.4364   25.4200 C   0  0  0  0  0  0  0  0  0  0  0  0
    9.7853   -1.1840   24.4927 C   0  0  0  0  0  0  0  0  0  0  0  0
    5.0276   -8.5227   17.5352 C   0  0  0  0  0  0  0  0  0  0  0  0
    9.8187   -2.0895   25.5800 C   0  0  0  0  0  0  0  0  0  0  0  0
    5.6473   -8.7216   15.3158 C   0  0  0  0  0  0  0  0  0  0  0  0
   10.7581   -3.1233   19.4720 N   0  0  0  0  0  0  0  0  0  0  0  0
    9.9571   -4.0573   16.8866 C   0  0  0  0  0  0  0  0  0  0  0  0
    7.6213   -6.5618   16.0087 C   0  0  0  0  0  0  0  0  0  0  0  0
   10.8583   -2.6527   20.7222 C   0  0  0  0  0  0  0  0  0  0  0  0
   10.6412   -3.5089   21.7936 C   0  0  0  0  0  0  0  0  0  0  0  0
   10.4972   -3.8968   24.1589 C   0  0  0  0  0  0  0  0  0  0  0  0
    5.9260   -8.2736   16.5517 C   0  0  0  0  0  0  0  0  0  0  0  0
    3.8816   -9.1166   17.2493 C   0  0  0  0  0  0  0  0  0  0  0  0
   10.1297   -1.6575   23.2324 C   0  0  0  0  0  0  0  0  0  0  0  0
    9.4684   -1.6929   26.7263 F   0  0  0  0  0  0  0  0  0  0  0  0
    7.7963   -7.7906   17.9837 C   0  0  0  0  0  0  0  0  0  0  0  0
   10.5884   -3.0725   16.7902 O   0  0  0  0  0  0  0  0  0  0  0  0
   10.4323   -5.3494   20.3516 C   0  0  0  0  0  0  0  0  0  0  0  0
    7.1156   -7.5454   16.8218 C   0  0  0  0  0  0  0  0  0  0  0  0
   10.3885   -4.4388   19.2773 C   0  0  0  0  0  0  0  0  0  0  0  0
    4.5160   -9.3822   15.0841 C   0  0  0  0  0  0  0  0  0  0  0  0
  1  3  4  0
  1 24  4  0
  2  6  4  0
  2 15  4  0
  3  5  4  0
  3  6  4  0
  4 21  4  0
  4 29  4  0
  5 15  4  0
  5 28  1  0
  6 16  4  0
  7 18  4  0
  7 26  4  0
  8 18  1  0
  8 19  4  0
  8 22  4  0
  9 12  4  0
  9 19  4  0
 10 12  4  0
 10 22  4  0
 11 20  4  0
 11 21  4  0
 12 23  1  0
 13 20  4  0
 13 29  4  0
 14 17  4  0
 14 28  4  0
 15 25  2  0
 16 27  4  0
 17 18  4  0
 20 27  1  0
 24 27  4  0
 26 28  4  0
M  END
$$$$

 Created by Python create_sdf_string function

 29 33  0  0  0  0  0  0  0  0999 V2000
    8.8270   -7.0288   18.4251 C   0  0  0  0  0  0  0  0  0  0  0  0
    9.1576   -4.6236   15.8860 O   0  0  0  0  0  0  0  0  0  0  0  0
    9.1509   -5.9108   17.7177 C   0  0  0  0  0  0  0  0  0  0  0  0
    3.6373   -9.5349   16.0582 N   0  0  0  0  0  0  0  0  0  0  0  0
    9.9275   -4.8001   18.0438 N   0  0  0  0  0  0  0  0  0  0  0  0
    8.5908   -5.7425   16.4412 C   0  0  0  0  0  0  0  0  0  0  0  0
   10.5993   -4.8981   21.6068 C   0  0  0  0  0  0  0  0  0  0  0  0
   10.4258   -3.0106   23.0998 C   0  0  0  0  0  0  0  0  0  0  0  0
   10.2148   -3.4364   25.4200 C   0  0  0  0  0  0  0  0  0  0  0  0
    9.7853   -1.1840   24.4927 C   0  0  0  0  0  0  0  0  0  0  0  0
    5.0276   -8.5227   17.5352 C   0  0  0  0  0  0  0  0  0  0  0  0
    9.8187   -2.0895   25.5800 C   0  0  0  0  0  0  0  0  0  0  0  0
    5.6473   -8.7216   15.3158 C   0  0  0  0  0  0  0  0  0  0  0  0
   10.7581   -3.1233   19.4720 N   0  0  0  0  0  0  0  0  0  0  0  0
    9.9571   -4.0573   16.8866 C   0  0  0  0  0  0  0  0  0  0  0  0
    7.6213   -6.5618   16.0087 C   0  0  0  0  0  0  0  0  0  0  0  0
   10.8583   -2.6527   20.7222 C   0  0  0  0  0  0  0  0  0  0  0  0
   10.6412   -3.5089   21.7936 C   0  0  0  0  0  0  0  0  0  0  0  0
   10.4972   -3.8968   24.1589 C   0  0  0  0  0  0  0  0  0  0  0  0
    5.9260   -8.2736   16.5517 C   0  0  0  0  0  0  0  0  0  0  0  0
    3.8816   -9.1166   17.2493 C   0  0  0  0  0  0  0  0  0  0  0  0
   10.1297   -1.6575   23.2324 C   0  0  0  0  0  0  0  0  0  0  0  0
    9.4684   -1.6929   26.7263 F   0  0  0  0  0  0  0  0  0  0  0  0
    7.7963   -7.7906   17.9837 C   0  0  0  0  0  0  0  0  0  0  0  0
   10.5884   -3.0725   16.7902 O   0  0  0  0  0  0  0  0  0  0  0  0
   10.4323   -5.3494   20.3516 C   0  0  0  0  0  0  0  0  0  0  0  0
    7.1156   -7.5454   16.8218 C   0  0  0  0  0  0  0  0  0  0  0  0
   10.3885   -4.4388   19.2773 C   0  0  0  0  0  0  0  0  0  0  0  0
    4.5160   -9.3822   15.0841 C   0  0  0  0  0  0  0  0  0  0  0  0
  1  3  4  0
  1 24  4  0
  2  6  4  0
  2 15  4  0
  3  5  4  0
  3  6  4  0
  4 21  4  0
  4 29  4  0
  5 15  4  0
  5 28  1  0
  6 16  4  0
  7 18  4  0
  7 26  4  0
  8 18  1  0
  8 19  4  0
  8 22  4  0
  9 12  4  0
  9 19  4  0
 10 12  4  0
 10 22  4  0
 11 20  4  0
 11 21  4  0
 12 23  1  0
 13 20  4  0
 13 29  4  0
 14 17  4  0
 14 28  4  0
 15 25  2  0
 16 27  4  0
 17 18  4  0
 20 27  1  0
 24 27  4  0
 26 28  4  0
M  END
$$$$

 Created by Python create_sdf_string function

 29 33  0  0  0  0  0  0  0  0999 V2000
    8.8270   -7.0288   18.4251 C   0  0  0  0  0  0  0  0  0  0  0  0
    9.1576   -4.6236   15.8860 O   0  0  0  0  0  0  0  0  0  0  0  0
    9.1509   -5.9108   17.7177 C   0  0  0  0  0  0  0  0  0  0  0  0
    3.6373   -9.5349   16.0582 N   0  0  0  0  0  0  0  0  0  0  0  0
    9.9275   -4.8001   18.0438 N   0  0  0  0  0  0  0  0  0  0  0  0
    8.5908   -5.7425   16.4412 C   0  0  0  0  0  0  0  0  0  0  0  0
   10.5993   -4.8981   21.6068 C   0  0  0  0  0  0  0  0  0  0  0  0
   10.4258   -3.0106   23.0998 C   0  0  0  0  0  0  0  0  0  0  0  0
   10.2148   -3.4364   25.4200 C   0  0  0  0  0  0  0  0  0  0  0  0
    9.7853   -1.1840   24.4927 C   0  0  0  0  0  0  0  0  0  0  0  0
    5.0276   -8.5227   17.5352 C   0  0  0  0  0  0  0  0  0  0  0  0
    9.8187   -2.0895   25.5800 C   0  0  0  0  0  0  0  0  0  0  0  0
    5.6473   -8.7216   15.3158 C   0  0  0  0  0  0  0  0  0  0  0  0
   10.7581   -3.1233   19.4720 N   0  0  0  0  0  0  0  0  0  0  0  0
    9.9571   -4.0573   16.8866 C   0  0  0  0  0  0  0  0  0  0  0  0
    7.6213   -6.5618   16.0087 C   0  0  0  0  0  0  0  0  0  0  0  0
   10.8583   -2.6527   20.7222 C   0  0  0  0  0  0  0  0  0  0  0  0
   10.6412   -3.5089   21.7936 C   0  0  0  0  0  0  0  0  0  0  0  0
   10.4972   -3.8968   24.1589 C   0  0  0  0  0  0  0  0  0  0  0  0
    5.9260   -8.2736   16.5517 C   0  0  0  0  0  0  0  0  0  0  0  0
    3.8816   -9.1166   17.2493 C   0  0  0  0  0  0  0  0  0  0  0  0
   10.1297   -1.6575   23.2324 C   0  0  0  0  0  0  0  0  0  0  0  0
    9.4684   -1.6929   26.7263 F   0  0  0  0  0  0  0  0  0  0  0  0
    7.7963   -7.7906   17.9837 C   0  0  0  0  0  0  0  0  0  0  0  0
   10.5884   -3.0725   16.7902 O   0  0  0  0  0  0  0  0  0  0  0  0
   10.4323   -5.3494   20.3516 C   0  0  0  0  0  0  0  0  0  0  0  0
    7.1156   -7.5454   16.8218 C   0  0  0  0  0  0  0  0  0  0  0  0
   10.3885   -4.4388   19.2773 C   0  0  0  0  0  0  0  0  0  0  0  0
    4.5160   -9.3822   15.0841 C   0  0  0  0  0  0  0  0  0  0  0  0
  1  3  4  0
  1 24  4  0
  2  6  4  0
  2 15  4  0
  3  5  4  0
  3  6  4  0
  4 21  4  0
  4 29  4  0
  5 15  4  0
  5 28  1  0
  6 16  4  0
  7 18  4  0
  7 26  4  0
  8 18  1  0
  8 19  4  0
  8 22  4  0
  9 12  4  0
  9 19  4  0
 10 12  4  0
 10 22  4  0
 11 20  4  0
 11 21  4  0
 12 23  1  0
 13 20  4  0
 13 29  4  0
 14 17  4  0
 14 28  4  0
 15 25  2  0
 16 27  4  0
 17 18  4  0
 20 27  1  0
 24 27  4  0
 26 28  4  0
M  END
$$$$

 Created by Python create_sdf_string function

 29 33  0  0  0  0  0  0  0  0999 V2000
    8.8270   -7.0288   18.4251 C   0  0  0  0  0  0  0  0  0  0  0  0
    9.1576   -4.6236   15.8860 O   0  0  0  0  0  0  0  0  0  0  0  0
    9.1509   -5.9108   17.7177 C   0  0  0  0  0  0  0  0  0  0  0  0
    3.6373   -9.5349   16.0582 N   0  0  0  0  0  0  0  0  0  0  0  0
    9.9275   -4.8001   18.0438 N   0  0  0  0  0  0  0  0  0  0  0  0
    8.5908   -5.7425   16.4412 C   0  0  0  0  0  0  0  0  0  0  0  0
   10.5993   -4.8981   21.6068 C   0  0  0  0  0  0  0  0  0  0  0  0
   10.4258   -3.0106   23.0998 C   0  0  0  0  0  0  0  0  0  0  0  0
   10.2148   -3.4364   25.4200 C   0  0  0  0  0  0  0  0  0  0  0  0
    9.7853   -1.1840   24.4927 C   0  0  0  0  0  0  0  0  0  0  0  0
    5.0276   -8.5227   17.5352 C   0  0  0  0  0  0  0  0  0  0  0  0
    9.8187   -2.0895   25.5800 C   0  0  0  0  0  0  0  0  0  0  0  0
    5.6473   -8.7216   15.3158 C   0  0  0  0  0  0  0  0  0  0  0  0
   10.7581   -3.1233   19.4720 N   0  0  0  0  0  0  0  0  0  0  0  0
    9.9571   -4.0573   16.8866 C   0  0  0  0  0  0  0  0  0  0  0  0
    7.6213   -6.5618   16.0087 C   0  0  0  0  0  0  0  0  0  0  0  0
   10.8583   -2.6527   20.7222 C   0  0  0  0  0  0  0  0  0  0  0  0
   10.6412   -3.5089   21.7936 C   0  0  0  0  0  0  0  0  0  0  0  0
   10.4972   -3.8968   24.1589 C   0  0  0  0  0  0  0  0  0  0  0  0
    5.9260   -8.2736   16.5517 C   0  0  0  0  0  0  0  0  0  0  0  0
    3.8816   -9.1166   17.2493 C   0  0  0  0  0  0  0  0  0  0  0  0
   10.1297   -1.6575   23.2324 C   0  0  0  0  0  0  0  0  0  0  0  0
    9.4684   -1.6929   26.7263 F   0  0  0  0  0  0  0  0  0  0  0  0
    7.7963   -7.7906   17.9837 C   0  0  0  0  0  0  0  0  0  0  0  0
   10.5884   -3.0725   16.7902 O   0  0  0  0  0  0  0  0  0  0  0  0
   10.4323   -5.3494   20.3516 C   0  0  0  0  0  0  0  0  0  0  0  0
    7.1156   -7.5454   16.8218 C   0  0  0  0  0  0  0  0  0  0  0  0
   10.3885   -4.4388   19.2773 C   0  0  0  0  0  0  0  0  0  0  0  0
    4.5160   -9.3822   15.0841 C   0  0  0  0  0  0  0  0  0  0  0  0
  1  3  4  0
  1 24  4  0
  2  6  4  0
  2 15  4  0
  3  5  4  0
  3  6  4  0
  4 21  4  0
  4 29  4  0
  5 15  4  0
  5 28  1  0
  6 16  4  0
  7 18  4  0
  7 26  4  0
  8 18  1  0
  8 19  4  0
  8 22  4  0
  9 12  4  0
  9 19  4  0
 10 12  4  0
 10 22  4  0
 11 20  4  0
 11 21  4  0
 12 23  1  0
 13 20  4  0
 13 29  4  0
 14 17  4  0
 14 28  4  0
 15 25  2  0
 16 27  4  0
 17 18  4  0
 20 27  1  0
 24 27  4  0
 26 28  4  0
M  END
$$$$

 Created by Python create_sdf_string function

 29 33  0  0  0  0  0  0  0  0999 V2000
    8.8270   -7.0288   18.4251 C   0  0  0  0  0  0  0  0  0  0  0  0
    9.1576   -4.6236   15.8860 O   0  0  0  0  0  0  0  0  0  0  0  0
    9.1509   -5.9108   17.7177 C   0  0  0  0  0  0  0  0  0  0  0  0
    3.6373   -9.5349   16.0582 N   0  0  0  0  0  0  0  0  0  0  0  0
    9.9275   -4.8001   18.0438 N   0  0  0  0  0  0  0  0  0  0  0  0
    8.5908   -5.7425   16.4412 C   0  0  0  0  0  0  0  0  0  0  0  0
   10.5993   -4.8981   21.6068 C   0  0  0  0  0  0  0  0  0  0  0  0
   10.4258   -3.0106   23.0998 C   0  0  0  0  0  0  0  0  0  0  0  0
   10.2148   -3.4364   25.4200 C   0  0  0  0  0  0  0  0  0  0  0  0
    9.7853   -1.1840   24.4927 C   0  0  0  0  0  0  0  0  0  0  0  0
    5.0276   -8.5227   17.5352 C   0  0  0  0  0  0  0  0  0  0  0  0
    9.8187   -2.0895   25.5800 C   0  0  0  0  0  0  0  0  0  0  0  0
    5.6473   -8.7216   15.3158 C   0  0  0  0  0  0  0  0  0  0  0  0
   10.7581   -3.1233   19.4720 N   0  0  0  0  0  0  0  0  0  0  0  0
    9.9571   -4.0573   16.8866 C   0  0  0  0  0  0  0  0  0  0  0  0
    7.6213   -6.5618   16.0087 C   0  0  0  0  0  0  0  0  0  0  0  0
   10.8583   -2.6527   20.7222 C   0  0  0  0  0  0  0  0  0  0  0  0
   10.6412   -3.5089   21.7936 C   0  0  0  0  0  0  0  0  0  0  0  0
   10.4972   -3.8968   24.1589 C   0  0  0  0  0  0  0  0  0  0  0  0
    5.9260   -8.2736   16.5517 C   0  0  0  0  0  0  0  0  0  0  0  0
    3.8816   -9.1166   17.2493 C   0  0  0  0  0  0  0  0  0  0  0  0
   10.1297   -1.6575   23.2324 C   0  0  0  0  0  0  0  0  0  0  0  0
    9.4684   -1.6929   26.7263 F   0  0  0  0  0  0  0  0  0  0  0  0
    7.7963   -7.7906   17.9837 C   0  0  0  0  0  0  0  0  0  0  0  0
   10.5884   -3.0725   16.7902 O   0  0  0  0  0  0  0  0  0  0  0  0
   10.4323   -5.3494   20.3516 C   0  0  0  0  0  0  0  0  0  0  0  0
    7.1156   -7.5454   16.8218 C   0  0  0  0  0  0  0  0  0  0  0  0
   10.3885   -4.4388   19.2773 C   0  0  0  0  0  0  0  0  0  0  0  0
    4.5160   -9.3822   15.0841 C   0  0  0  0  0  0  0  0  0  0  0  0
  1  3  4  0
  1 24  4  0
  2  6  4  0
  2 15  4  0
  3  5  4  0
  3  6  4  0
  4 21  4  0
  4 29  4  0
  5 15  4  0
  5 28  1  0
  6 16  4  0
  7 18  4  0
  7 26  4  0
  8 18  1  0
  8 19  4  0
  8 22  4  0
  9 12  4  0
  9 19  4  0
 10 12  4  0
 10 22  4  0
 11 20  4  0
 11 21  4  0
 12 23  1  0
 13 20  4  0
 13 29  4  0
 14 17  4  0
 14 28  4  0
 15 25  2  0
 16 27  4  0
 17 18  4  0
 20 27  1  0
 24 27  4  0
 26 28  4  0
M  END
$$$$

 Created by Python create_sdf_string function

 29 33  0  0  0  0  0  0  0  0999 V2000
    8.8270   -7.0288   18.4251 C   0  0  0  0  0  0  0  0  0  0  0  0
    9.1576   -4.6236   15.8860 O   0  0  0  0  0  0  0  0  0  0  0  0
    9.1509   -5.9108   17.7177 C   0  0  0  0  0  0  0  0  0  0  0  0
    3.6373   -9.5349   16.0582 N   0  0  0  0  0  0  0  0  0  0  0  0
    9.9275   -4.8001   18.0438 N   0  0  0  0  0  0  0  0  0  0  0  0
    8.5908   -5.7425   16.4412 C   0  0  0  0  0  0  0  0  0  0  0  0
   10.5993   -4.8981   21.6068 C   0  0  0  0  0  0  0  0  0  0  0  0
   10.4258   -3.0106   23.0998 C   0  0  0  0  0  0  0  0  0  0  0  0
   10.2148   -3.4364   25.4200 C   0  0  0  0  0  0  0  0  0  0  0  0
    9.7853   -1.1840   24.4927 C   0  0  0  0  0  0  0  0  0  0  0  0
    5.0276   -8.5227   17.5352 C   0  0  0  0  0  0  0  0  0  0  0  0
    9.8187   -2.0895   25.5800 C   0  0  0  0  0  0  0  0  0  0  0  0
    5.6473   -8.7216   15.3158 C   0  0  0  0  0  0  0  0  0  0  0  0
   10.7581   -3.1233   19.4720 N   0  0  0  0  0  0  0  0  0  0  0  0
    9.9571   -4.0573   16.8866 C   0  0  0  0  0  0  0  0  0  0  0  0
    7.6213   -6.5618   16.0087 C   0  0  0  0  0  0  0  0  0  0  0  0
   10.8583   -2.6527   20.7222 C   0  0  0  0  0  0  0  0  0  0  0  0
   10.6412   -3.5089   21.7936 C   0  0  0  0  0  0  0  0  0  0  0  0
   10.4972   -3.8968   24.1589 C   0  0  0  0  0  0  0  0  0  0  0  0
    5.9260   -8.2736   16.5517 C   0  0  0  0  0  0  0  0  0  0  0  0
    3.8816   -9.1166   17.2493 C   0  0  0  0  0  0  0  0  0  0  0  0
   10.1297   -1.6575   23.2324 C   0  0  0  0  0  0  0  0  0  0  0  0
    9.4684   -1.6929   26.7263 F   0  0  0  0  0  0  0  0  0  0  0  0
    7.7963   -7.7906   17.9837 C   0  0  0  0  0  0  0  0  0  0  0  0
   10.5884   -3.0725   16.7902 O   0  0  0  0  0  0  0  0  0  0  0  0
   10.4323   -5.3494   20.3516 C   0  0  0  0  0  0  0  0  0  0  0  0
    7.1156   -7.5454   16.8218 C   0  0  0  0  0  0  0  0  0  0  0  0
   10.3885   -4.4388   19.2773 C   0  0  0  0  0  0  0  0  0  0  0  0
    4.5160   -9.3822   15.0841 C   0  0  0  0  0  0  0  0  0  0  0  0
  1  3  4  0
  1 24  4  0
  2  6  4  0
  2 15  4  0
  3  5  4  0
  3  6  4  0
  4 21  4  0
  4 29  4  0
  5 15  4  0
  5 28  1  0
  6 16  4  0
  7 18  4  0
  7 26  4  0
  8 18  1  0
  8 19  4  0
  8 22  4  0
  9 12  4  0
  9 19  4  0
 10 12  4  0
 10 22  4  0
 11 20  4  0
 11 21  4  0
 12 23  1  0
 13 20  4  0
 13 29  4  0
 14 17  4  0
 14 28  4  0
 15 25  2  0
 16 27  4  0
 17 18  4  0
 20 27  1  0
 24 27  4  0
 26 28  4  0
M  END
$$$$

 Created by Python create_sdf_string function

 29 33  0  0  0  0  0  0  0  0999 V2000
    8.8270   -7.0288   18.4251 C   0  0  0  0  0  0  0  0  0  0  0  0
    9.1576   -4.6236   15.8860 O   0  0  0  0  0  0  0  0  0  0  0  0
    9.1509   -5.9108   17.7177 C   0  0  0  0  0  0  0  0  0  0  0  0
    3.6373   -9.5349   16.0582 N   0  0  0  0  0  0  0  0  0  0  0  0
    9.9275   -4.8001   18.0438 N   0  0  0  0  0  0  0  0  0  0  0  0
    8.5908   -5.7425   16.4412 C   0  0  0  0  0  0  0  0  0  0  0  0
   10.5993   -4.8981   21.6068 C   0  0  0  0  0  0  0  0  0  0  0  0
   10.4258   -3.0106   23.0998 C   0  0  0  0  0  0  0  0  0  0  0  0
   10.2148   -3.4364   25.4200 C   0  0  0  0  0  0  0  0  0  0  0  0
    9.7853   -1.1840   24.4927 C   0  0  0  0  0  0  0  0  0  0  0  0
    5.0276   -8.5227   17.5352 C   0  0  0  0  0  0  0  0  0  0  0  0
    9.8187   -2.0895   25.5800 C   0  0  0  0  0  0  0  0  0  0  0  0
    5.6473   -8.7216   15.3158 C   0  0  0  0  0  0  0  0  0  0  0  0
   10.7581   -3.1233   19.4720 N   0  0  0  0  0  0  0  0  0  0  0  0
    9.9571   -4.0573   16.8866 C   0  0  0  0  0  0  0  0  0  0  0  0
    7.6213   -6.5618   16.0087 C   0  0  0  0  0  0  0  0  0  0  0  0
   10.8583   -2.6527   20.7222 C   0  0  0  0  0  0  0  0  0  0  0  0
   10.6412   -3.5089   21.7936 C   0  0  0  0  0  0  0  0  0  0  0  0
   10.4972   -3.8968   24.1589 C   0  0  0  0  0  0  0  0  0  0  0  0
    5.9260   -8.2736   16.5517 C   0  0  0  0  0  0  0  0  0  0  0  0
    3.8816   -9.1166   17.2493 C   0  0  0  0  0  0  0  0  0  0  0  0
   10.1297   -1.6575   23.2324 C   0  0  0  0  0  0  0  0  0  0  0  0
    9.4684   -1.6929   26.7263 F   0  0  0  0  0  0  0  0  0  0  0  0
    7.7963   -7.7906   17.9837 C   0  0  0  0  0  0  0  0  0  0  0  0
   10.5884   -3.0725   16.7902 O   0  0  0  0  0  0  0  0  0  0  0  0
   10.4323   -5.3494   20.3516 C   0  0  0  0  0  0  0  0  0  0  0  0
    7.1156   -7.5454   16.8218 C   0  0  0  0  0  0  0  0  0  0  0  0
   10.3885   -4.4388   19.2773 C   0  0  0  0  0  0  0  0  0  0  0  0
    4.5160   -9.3822   15.0841 C   0  0  0  0  0  0  0  0  0  0  0  0
  1  3  4  0
  1 24  4  0
  2  6  4  0
  2 15  4  0
  3  5  4  0
  3  6  4  0
  4 21  4  0
  4 29  4  0
  5 15  4  0
  5 28  1  0
  6 16  4  0
  7 18  4  0
  7 26  4  0
  8 18  1  0
  8 19  4  0
  8 22  4  0
  9 12  4  0
  9 19  4  0
 10 12  4  0
 10 22  4  0
 11 20  4  0
 11 21  4  0
 12 23  1  0
 13 20  4  0
 13 29  4  0
 14 17  4  0
 14 28  4  0
 15 25  2  0
 16 27  4  0
 17 18  4  0
 20 27  1  0
 24 27  4  0
 26 28  4  0
M  END
$$$$

 Created by Python create_sdf_string function

 29 33  0  0  0  0  0  0  0  0999 V2000
    8.8270   -7.0288   18.4251 C   0  0  0  0  0  0  0  0  0  0  0  0
    9.1576   -4.6236   15.8860 O   0  0  0  0  0  0  0  0  0  0  0  0
    9.1509   -5.9108   17.7177 C   0  0  0  0  0  0  0  0  0  0  0  0
    3.6373   -9.5349   16.0582 N   0  0  0  0  0  0  0  0  0  0  0  0
    9.9275   -4.8001   18.0438 N   0  0  0  0  0  0  0  0  0  0  0  0
    8.5908   -5.7425   16.4412 C   0  0  0  0  0  0  0  0  0  0  0  0
   10.5993   -4.8981   21.6068 C   0  0  0  0  0  0  0  0  0  0  0  0
   10.4258   -3.0106   23.0998 C   0  0  0  0  0  0  0  0  0  0  0  0
   10.2148   -3.4364   25.4200 C   0  0  0  0  0  0  0  0  0  0  0  0
    9.7853   -1.1840   24.4927 C   0  0  0  0  0  0  0  0  0  0  0  0
    5.0276   -8.5227   17.5352 C   0  0  0  0  0  0  0  0  0  0  0  0
    9.8187   -2.0895   25.5800 C   0  0  0  0  0  0  0  0  0  0  0  0
    5.6473   -8.7216   15.3158 C   0  0  0  0  0  0  0  0  0  0  0  0
   10.7581   -3.1233   19.4720 N   0  0  0  0  0  0  0  0  0  0  0  0
    9.9571   -4.0573   16.8866 C   0  0  0  0  0  0  0  0  0  0  0  0
    7.6213   -6.5618   16.0087 C   0  0  0  0  0  0  0  0  0  0  0  0
   10.8583   -2.6527   20.7222 C   0  0  0  0  0  0  0  0  0  0  0  0
   10.6412   -3.5089   21.7936 C   0  0  0  0  0  0  0  0  0  0  0  0
   10.4972   -3.8968   24.1589 C   0  0  0  0  0  0  0  0  0  0  0  0
    5.9260   -8.2736   16.5517 C   0  0  0  0  0  0  0  0  0  0  0  0
    3.8816   -9.1166   17.2493 C   0  0  0  0  0  0  0  0  0  0  0  0
   10.1297   -1.6575   23.2324 C   0  0  0  0  0  0  0  0  0  0  0  0
    9.4684   -1.6929   26.7263 F   0  0  0  0  0  0  0  0  0  0  0  0
    7.7963   -7.7906   17.9837 C   0  0  0  0  0  0  0  0  0  0  0  0
   10.5884   -3.0725   16.7902 O   0  0  0  0  0  0  0  0  0  0  0  0
   10.4323   -5.3494   20.3516 C   0  0  0  0  0  0  0  0  0  0  0  0
    7.1156   -7.5454   16.8218 C   0  0  0  0  0  0  0  0  0  0  0  0
   10.3885   -4.4388   19.2773 C   0  0  0  0  0  0  0  0  0  0  0  0
    4.5160   -9.3822   15.0841 C   0  0  0  0  0  0  0  0  0  0  0  0
  1  3  4  0
  1 24  4  0
  2  6  4  0
  2 15  4  0
  3  5  4  0
  3  6  4  0
  4 21  4  0
  4 29  4  0
  5 15  4  0
  5 28  1  0
  6 16  4  0
  7 18  4  0
  7 26  4  0
  8 18  1  0
  8 19  4  0
  8 22  4  0
  9 12  4  0
  9 19  4  0
 10 12  4  0
 10 22  4  0
 11 20  4  0
 11 21  4  0
 12 23  1  0
 13 20  4  0
 13 29  4  0
 14 17  4  0
 14 28  4  0
 15 25  2  0
 16 27  4  0
 17 18  4  0
 20 27  1  0
 24 27  4  0
 26 28  4  0
M  END
$$$$

 Created by Python create_sdf_string function

 29 33  0  0  0  0  0  0  0  0999 V2000
    8.8270   -7.0288   18.4251 C   0  0  0  0  0  0  0  0  0  0  0  0
    9.1576   -4.6236   15.8860 O   0  0  0  0  0  0  0  0  0  0  0  0
    9.1509   -5.9108   17.7177 C   0  0  0  0  0  0  0  0  0  0  0  0
    3.6373   -9.5349   16.0582 N   0  0  0  0  0  0  0  0  0  0  0  0
    9.9275   -4.8001   18.0438 N   0  0  0  0  0  0  0  0  0  0  0  0
    8.5908   -5.7425   16.4412 C   0  0  0  0  0  0  0  0  0  0  0  0
   10.5993   -4.8981   21.6068 C   0  0  0  0  0  0  0  0  0  0  0  0
   10.4258   -3.0106   23.0998 C   0  0  0  0  0  0  0  0  0  0  0  0
   10.2148   -3.4364   25.4200 C   0  0  0  0  0  0  0  0  0  0  0  0
    9.7853   -1.1840   24.4927 C   0  0  0  0  0  0  0  0  0  0  0  0
    5.0276   -8.5227   17.5352 C   0  0  0  0  0  0  0  0  0  0  0  0
    9.8187   -2.0895   25.5800 C   0  0  0  0  0  0  0  0  0  0  0  0
    5.6473   -8.7216   15.3158 C   0  0  0  0  0  0  0  0  0  0  0  0
   10.7581   -3.1233   19.4720 N   0  0  0  0  0  0  0  0  0  0  0  0
    9.9571   -4.0573   16.8866 C   0  0  0  0  0  0  0  0  0  0  0  0
    7.6213   -6.5618   16.0087 C   0  0  0  0  0  0  0  0  0  0  0  0
   10.8583   -2.6527   20.7222 C   0  0  0  0  0  0  0  0  0  0  0  0
   10.6412   -3.5089   21.7936 C   0  0  0  0  0  0  0  0  0  0  0  0
   10.4972   -3.8968   24.1589 C   0  0  0  0  0  0  0  0  0  0  0  0
    5.9260   -8.2736   16.5517 C   0  0  0  0  0  0  0  0  0  0  0  0
    3.8816   -9.1166   17.2493 C   0  0  0  0  0  0  0  0  0  0  0  0
   10.1297   -1.6575   23.2324 C   0  0  0  0  0  0  0  0  0  0  0  0
    9.4684   -1.6929   26.7263 F   0  0  0  0  0  0  0  0  0  0  0  0
    7.7963   -7.7906   17.9837 C   0  0  0  0  0  0  0  0  0  0  0  0
   10.5884   -3.0725   16.7902 O   0  0  0  0  0  0  0  0  0  0  0  0
   10.4323   -5.3494   20.3516 C   0  0  0  0  0  0  0  0  0  0  0  0
    7.1156   -7.5454   16.8218 C   0  0  0  0  0  0  0  0  0  0  0  0
   10.3885   -4.4388   19.2773 C   0  0  0  0  0  0  0  0  0  0  0  0
    4.5160   -9.3822   15.0841 C   0  0  0  0  0  0  0  0  0  0  0  0
  1  3  4  0
  1 24  4  0
  2  6  4  0
  2 15  4  0
  3  5  4  0
  3  6  4  0
  4 21  4  0
  4 29  4  0
  5 15  4  0
  5 28  1  0
  6 16  4  0
  7 18  4  0
  7 26  4  0
  8 18  1  0
  8 19  4  0
  8 22  4  0
  9 12  4  0
  9 19  4  0
 10 12  4  0
 10 22  4  0
 11 20  4  0
 11 21  4  0
 12 23  1  0
 13 20  4  0
 13 29  4  0
 14 17  4  0
 14 28  4  0
 15 25  2  0
 16 27  4  0
 17 18  4  0
 20 27  1  0
 24 27  4  0
 26 28  4  0
M  END
$$$$

 Created by Python create_sdf_string function

 29 33  0  0  0  0  0  0  0  0999 V2000
    8.8270   -7.0288   18.4251 C   0  0  0  0  0  0  0  0  0  0  0  0
    9.1576   -4.6236   15.8860 O   0  0  0  0  0  0  0  0  0  0  0  0
    9.1509   -5.9108   17.7177 C   0  0  0  0  0  0  0  0  0  0  0  0
    3.6373   -9.5349   16.0582 N   0  0  0  0  0  0  0  0  0  0  0  0
    9.9275   -4.8001   18.0438 N   0  0  0  0  0  0  0  0  0  0  0  0
    8.5908   -5.7425   16.4412 C   0  0  0  0  0  0  0  0  0  0  0  0
   10.5993   -4.8981   21.6068 C   0  0  0  0  0  0  0  0  0  0  0  0
   10.4258   -3.0106   23.0998 C   0  0  0  0  0  0  0  0  0  0  0  0
   10.2148   -3.4364   25.4200 C   0  0  0  0  0  0  0  0  0  0  0  0
    9.7853   -1.1840   24.4927 C   0  0  0  0  0  0  0  0  0  0  0  0
    5.0276   -8.5227   17.5352 C   0  0  0  0  0  0  0  0  0  0  0  0
    9.8187   -2.0895   25.5800 C   0  0  0  0  0  0  0  0  0  0  0  0
    5.6473   -8.7216   15.3158 C   0  0  0  0  0  0  0  0  0  0  0  0
   10.7581   -3.1233   19.4720 N   0  0  0  0  0  0  0  0  0  0  0  0
    9.9571   -4.0573   16.8866 C   0  0  0  0  0  0  0  0  0  0  0  0
    7.6213   -6.5618   16.0087 C   0  0  0  0  0  0  0  0  0  0  0  0
   10.8583   -2.6527   20.7222 C   0  0  0  0  0  0  0  0  0  0  0  0
   10.6412   -3.5089   21.7936 C   0  0  0  0  0  0  0  0  0  0  0  0
   10.4972   -3.8968   24.1589 C   0  0  0  0  0  0  0  0  0  0  0  0
    5.9260   -8.2736   16.5517 C   0  0  0  0  0  0  0  0  0  0  0  0
    3.8816   -9.1166   17.2493 C   0  0  0  0  0  0  0  0  0  0  0  0
   10.1297   -1.6575   23.2324 C   0  0  0  0  0  0  0  0  0  0  0  0
    9.4684   -1.6929   26.7263 F   0  0  0  0  0  0  0  0  0  0  0  0
    7.7963   -7.7906   17.9837 C   0  0  0  0  0  0  0  0  0  0  0  0
   10.5884   -3.0725   16.7902 O   0  0  0  0  0  0  0  0  0  0  0  0
   10.4323   -5.3494   20.3516 C   0  0  0  0  0  0  0  0  0  0  0  0
    7.1156   -7.5454   16.8218 C   0  0  0  0  0  0  0  0  0  0  0  0
   10.3885   -4.4388   19.2773 C   0  0  0  0  0  0  0  0  0  0  0  0
    4.5160   -9.3822   15.0841 C   0  0  0  0  0  0  0  0  0  0  0  0
  1  3  4  0
  1 24  4  0
  2  6  4  0
  2 15  4  0
  3  5  4  0
  3  6  4  0
  4 21  4  0
  4 29  4  0
  5 15  4  0
  5 28  1  0
  6 16  4  0
  7 18  4  0
  7 26  4  0
  8 18  1  0
  8 19  4  0
  8 22  4  0
  9 12  4  0
  9 19  4  0
 10 12  4  0
 10 22  4  0
 11 20  4  0
 11 21  4  0
 12 23  1  0
 13 20  4  0
 13 29  4  0
 14 17  4  0
 14 28  4  0
 15 25  2  0
 16 27  4  0
 17 18  4  0
 20 27  1  0
 24 27  4  0
 26 28  4  0
M  END
$$$$

 Created by Python create_sdf_string function

 29 33  0  0  0  0  0  0  0  0999 V2000
    8.8270   -7.0288   18.4251 C   0  0  0  0  0  0  0  0  0  0  0  0
    9.1576   -4.6236   15.8860 O   0  0  0  0  0  0  0  0  0  0  0  0
    9.1509   -5.9108   17.7177 C   0  0  0  0  0  0  0  0  0  0  0  0
    3.6373   -9.5349   16.0582 N   0  0  0  0  0  0  0  0  0  0  0  0
    9.9275   -4.8001   18.0438 N   0  0  0  0  0  0  0  0  0  0  0  0
    8.5908   -5.7425   16.4412 C   0  0  0  0  0  0  0  0  0  0  0  0
   10.5993   -4.8981   21.6068 C   0  0  0  0  0  0  0  0  0  0  0  0
   10.4258   -3.0106   23.0998 C   0  0  0  0  0  0  0  0  0  0  0  0
   10.2148   -3.4364   25.4200 C   0  0  0  0  0  0  0  0  0  0  0  0
    9.7853   -1.1840   24.4927 C   0  0  0  0  0  0  0  0  0  0  0  0
    5.0276   -8.5227   17.5352 C   0  0  0  0  0  0  0  0  0  0  0  0
    9.8187   -2.0895   25.5800 C   0  0  0  0  0  0  0  0  0  0  0  0
    5.6473   -8.7216   15.3158 C   0  0  0  0  0  0  0  0  0  0  0  0
   10.7581   -3.1233   19.4720 N   0  0  0  0  0  0  0  0  0  0  0  0
    9.9571   -4.0573   16.8866 C   0  0  0  0  0  0  0  0  0  0  0  0
    7.6213   -6.5618   16.0087 C   0  0  0  0  0  0  0  0  0  0  0  0
   10.8583   -2.6527   20.7222 C   0  0  0  0  0  0  0  0  0  0  0  0
   10.6412   -3.5089   21.7936 C   0  0  0  0  0  0  0  0  0  0  0  0
   10.4972   -3.8968   24.1589 C   0  0  0  0  0  0  0  0  0  0  0  0
    5.9260   -8.2736   16.5517 C   0  0  0  0  0  0  0  0  0  0  0  0
    3.8816   -9.1166   17.2493 C   0  0  0  0  0  0  0  0  0  0  0  0
   10.1297   -1.6575   23.2324 C   0  0  0  0  0  0  0  0  0  0  0  0
    9.4684   -1.6929   26.7263 F   0  0  0  0  0  0  0  0  0  0  0  0
    7.7963   -7.7906   17.9837 C   0  0  0  0  0  0  0  0  0  0  0  0
   10.5884   -3.0725   16.7902 O   0  0  0  0  0  0  0  0  0  0  0  0
   10.4323   -5.3494   20.3516 C   0  0  0  0  0  0  0  0  0  0  0  0
    7.1156   -7.5454   16.8218 C   0  0  0  0  0  0  0  0  0  0  0  0
   10.3885   -4.4388   19.2773 C   0  0  0  0  0  0  0  0  0  0  0  0
    4.5160   -9.3822   15.0841 C   0  0  0  0  0  0  0  0  0  0  0  0
  1  3  4  0
  1 24  4  0
  2  6  4  0
  2 15  4  0
  3  5  4  0
  3  6  4  0
  4 21  4  0
  4 29  4  0
  5 15  4  0
  5 28  1  0
  6 16  4  0
  7 18  4  0
  7 26  4  0
  8 18  1  0
  8 19  4  0
  8 22  4  0
  9 12  4  0
  9 19  4  0
 10 12  4  0
 10 22  4  0
 11 20  4  0
 11 21  4  0
 12 23  1  0
 13 20  4  0
 13 29  4  0
 14 17  4  0
 14 28  4  0
 15 25  2  0
 16 27  4  0
 17 18  4  0
 20 27  1  0
 24 27  4  0
 26 28  4  0
M  END
$$$$

 Created by Python create_sdf_string function

 29 33  0  0  0  0  0  0  0  0999 V2000
    8.8270   -7.0288   18.4251 C   0  0  0  0  0  0  0  0  0  0  0  0
    9.1576   -4.6236   15.8860 O   0  0  0  0  0  0  0  0  0  0  0  0
    9.1509   -5.9108   17.7177 C   0  0  0  0  0  0  0  0  0  0  0  0
    3.6373   -9.5349   16.0582 N   0  0  0  0  0  0  0  0  0  0  0  0
    9.9275   -4.8001   18.0438 N   0  0  0  0  0  0  0  0  0  0  0  0
    8.5908   -5.7425   16.4412 C   0  0  0  0  0  0  0  0  0  0  0  0
   10.5993   -4.8981   21.6068 C   0  0  0  0  0  0  0  0  0  0  0  0
   10.4258   -3.0106   23.0998 C   0  0  0  0  0  0  0  0  0  0  0  0
   10.2148   -3.4364   25.4200 C   0  0  0  0  0  0  0  0  0  0  0  0
    9.7853   -1.1840   24.4927 C   0  0  0  0  0  0  0  0  0  0  0  0
    5.0276   -8.5227   17.5352 C   0  0  0  0  0  0  0  0  0  0  0  0
    9.8187   -2.0895   25.5800 C   0  0  0  0  0  0  0  0  0  0  0  0
    5.6473   -8.7216   15.3158 C   0  0  0  0  0  0  0  0  0  0  0  0
   10.7581   -3.1233   19.4720 N   0  0  0  0  0  0  0  0  0  0  0  0
    9.9571   -4.0573   16.8866 C   0  0  0  0  0  0  0  0  0  0  0  0
    7.6213   -6.5618   16.0087 C   0  0  0  0  0  0  0  0  0  0  0  0
   10.8583   -2.6527   20.7222 C   0  0  0  0  0  0  0  0  0  0  0  0
   10.6412   -3.5089   21.7936 C   0  0  0  0  0  0  0  0  0  0  0  0
   10.4972   -3.8968   24.1589 C   0  0  0  0  0  0  0  0  0  0  0  0
    5.9260   -8.2736   16.5517 C   0  0  0  0  0  0  0  0  0  0  0  0
    3.8816   -9.1166   17.2493 C   0  0  0  0  0  0  0  0  0  0  0  0
   10.1297   -1.6575   23.2324 C   0  0  0  0  0  0  0  0  0  0  0  0
    9.4684   -1.6929   26.7263 F   0  0  0  0  0  0  0  0  0  0  0  0
    7.7963   -7.7906   17.9837 C   0  0  0  0  0  0  0  0  0  0  0  0
   10.5884   -3.0725   16.7902 O   0  0  0  0  0  0  0  0  0  0  0  0
   10.4323   -5.3494   20.3516 C   0  0  0  0  0  0  0  0  0  0  0  0
    7.1156   -7.5454   16.8218 C   0  0  0  0  0  0  0  0  0  0  0  0
   10.3885   -4.4388   19.2773 C   0  0  0  0  0  0  0  0  0  0  0  0
    4.5160   -9.3822   15.0841 C   0  0  0  0  0  0  0  0  0  0  0  0
  1  3  4  0
  1 24  4  0
  2  6  4  0
  2 15  4  0
  3  5  4  0
  3  6  4  0
  4 21  4  0
  4 29  4  0
  5 15  4  0
  5 28  1  0
  6 16  4  0
  7 18  4  0
  7 26  4  0
  8 18  1  0
  8 19  4  0
  8 22  4  0
  9 12  4  0
  9 19  4  0
 10 12  4  0
 10 22  4  0
 11 20  4  0
 11 21  4  0
 12 23  1  0
 13 20  4  0
 13 29  4  0
 14 17  4  0
 14 28  4  0
 15 25  2  0
 16 27  4  0
 17 18  4  0
 20 27  1  0
 24 27  4  0
 26 28  4  0
M  END
$$$$

 Created by Python create_sdf_string function

 29 33  0  0  0  0  0  0  0  0999 V2000
    8.8270   -7.0288   18.4251 C   0  0  0  0  0  0  0  0  0  0  0  0
    9.1576   -4.6236   15.8860 O   0  0  0  0  0  0  0  0  0  0  0  0
    9.1509   -5.9108   17.7177 C   0  0  0  0  0  0  0  0  0  0  0  0
    3.6373   -9.5349   16.0582 N   0  0  0  0  0  0  0  0  0  0  0  0
    9.9275   -4.8001   18.0438 N   0  0  0  0  0  0  0  0  0  0  0  0
    8.5908   -5.7425   16.4412 C   0  0  0  0  0  0  0  0  0  0  0  0
   10.5993   -4.8981   21.6068 C   0  0  0  0  0  0  0  0  0  0  0  0
   10.4258   -3.0106   23.0998 C   0  0  0  0  0  0  0  0  0  0  0  0
   10.2148   -3.4364   25.4200 C   0  0  0  0  0  0  0  0  0  0  0  0
    9.7853   -1.1840   24.4927 C   0  0  0  0  0  0  0  0  0  0  0  0
    5.0276   -8.5227   17.5352 C   0  0  0  0  0  0  0  0  0  0  0  0
    9.8187   -2.0895   25.5800 C   0  0  0  0  0  0  0  0  0  0  0  0
    5.6473   -8.7216   15.3158 C   0  0  0  0  0  0  0  0  0  0  0  0
   10.7581   -3.1233   19.4720 N   0  0  0  0  0  0  0  0  0  0  0  0
    9.9571   -4.0573   16.8866 C   0  0  0  0  0  0  0  0  0  0  0  0
    7.6213   -6.5618   16.0087 C   0  0  0  0  0  0  0  0  0  0  0  0
   10.8583   -2.6527   20.7222 C   0  0  0  0  0  0  0  0  0  0  0  0
   10.6412   -3.5089   21.7936 C   0  0  0  0  0  0  0  0  0  0  0  0
   10.4972   -3.8968   24.1589 C   0  0  0  0  0  0  0  0  0  0  0  0
    5.9260   -8.2736   16.5517 C   0  0  0  0  0  0  0  0  0  0  0  0
    3.8816   -9.1166   17.2493 C   0  0  0  0  0  0  0  0  0  0  0  0
   10.1297   -1.6575   23.2324 C   0  0  0  0  0  0  0  0  0  0  0  0
    9.4684   -1.6929   26.7263 F   0  0  0  0  0  0  0  0  0  0  0  0
    7.7963   -7.7906   17.9837 C   0  0  0  0  0  0  0  0  0  0  0  0
   10.5884   -3.0725   16.7902 O   0  0  0  0  0  0  0  0  0  0  0  0
   10.4323   -5.3494   20.3516 C   0  0  0  0  0  0  0  0  0  0  0  0
    7.1156   -7.5454   16.8218 C   0  0  0  0  0  0  0  0  0  0  0  0
   10.3885   -4.4388   19.2773 C   0  0  0  0  0  0  0  0  0  0  0  0
    4.5160   -9.3822   15.0841 C   0  0  0  0  0  0  0  0  0  0  0  0
  1  3  4  0
  1 24  4  0
  2  6  4  0
  2 15  4  0
  3  5  4  0
  3  6  4  0
  4 21  4  0
  4 29  4  0
  5 15  4  0
  5 28  1  0
  6 16  4  0
  7 18  4  0
  7 26  4  0
  8 18  1  0
  8 19  4  0
  8 22  4  0
  9 12  4  0
  9 19  4  0
 10 12  4  0
 10 22  4  0
 11 20  4  0
 11 21  4  0
 12 23  1  0
 13 20  4  0
 13 29  4  0
 14 17  4  0
 14 28  4  0
 15 25  2  0
 16 27  4  0
 17 18  4  0
 20 27  1  0
 24 27  4  0
 26 28  4  0
M  END
$$$$

 Created by Python create_sdf_string function

 29 33  0  0  0  0  0  0  0  0999 V2000
    8.8270   -7.0288   18.4251 C   0  0  0  0  0  0  0  0  0  0  0  0
    9.1576   -4.6236   15.8860 O   0  0  0  0  0  0  0  0  0  0  0  0
    9.1509   -5.9108   17.7177 C   0  0  0  0  0  0  0  0  0  0  0  0
    3.6373   -9.5349   16.0582 N   0  0  0  0  0  0  0  0  0  0  0  0
    9.9275   -4.8001   18.0438 N   0  0  0  0  0  0  0  0  0  0  0  0
    8.5908   -5.7425   16.4412 C   0  0  0  0  0  0  0  0  0  0  0  0
   10.5993   -4.8981   21.6068 C   0  0  0  0  0  0  0  0  0  0  0  0
   10.4258   -3.0106   23.0998 C   0  0  0  0  0  0  0  0  0  0  0  0
   10.2148   -3.4364   25.4200 C   0  0  0  0  0  0  0  0  0  0  0  0
    9.7853   -1.1840   24.4927 C   0  0  0  0  0  0  0  0  0  0  0  0
    5.0276   -8.5227   17.5352 C   0  0  0  0  0  0  0  0  0  0  0  0
    9.8187   -2.0895   25.5800 C   0  0  0  0  0  0  0  0  0  0  0  0
    5.6473   -8.7216   15.3158 C   0  0  0  0  0  0  0  0  0  0  0  0
   10.7581   -3.1233   19.4720 N   0  0  0  0  0  0  0  0  0  0  0  0
    9.9571   -4.0573   16.8866 C   0  0  0  0  0  0  0  0  0  0  0  0
    7.6213   -6.5618   16.0087 C   0  0  0  0  0  0  0  0  0  0  0  0
   10.8583   -2.6527   20.7222 C   0  0  0  0  0  0  0  0  0  0  0  0
   10.6412   -3.5089   21.7936 C   0  0  0  0  0  0  0  0  0  0  0  0
   10.4972   -3.8968   24.1589 C   0  0  0  0  0  0  0  0  0  0  0  0
    5.9260   -8.2736   16.5517 C   0  0  0  0  0  0  0  0  0  0  0  0
    3.8816   -9.1166   17.2493 C   0  0  0  0  0  0  0  0  0  0  0  0
   10.1297   -1.6575   23.2324 C   0  0  0  0  0  0  0  0  0  0  0  0
    9.4684   -1.6929   26.7263 F   0  0  0  0  0  0  0  0  0  0  0  0
    7.7963   -7.7906   17.9837 C   0  0  0  0  0  0  0  0  0  0  0  0
   10.5884   -3.0725   16.7902 O   0  0  0  0  0  0  0  0  0  0  0  0
   10.4323   -5.3494   20.3516 C   0  0  0  0  0  0  0  0  0  0  0  0
    7.1156   -7.5454   16.8218 C   0  0  0  0  0  0  0  0  0  0  0  0
   10.3885   -4.4388   19.2773 C   0  0  0  0  0  0  0  0  0  0  0  0
    4.5160   -9.3822   15.0841 C   0  0  0  0  0  0  0  0  0  0  0  0
  1  3  4  0
  1 24  4  0
  2  6  4  0
  2 15  4  0
  3  5  4  0
  3  6  4  0
  4 21  4  0
  4 29  4  0
  5 15  4  0
  5 28  1  0
  6 16  4  0
  7 18  4  0
  7 26  4  0
  8 18  1  0
  8 19  4  0
  8 22  4  0
  9 12  4  0
  9 19  4  0
 10 12  4  0
 10 22  4  0
 11 20  4  0
 11 21  4  0
 12 23  1  0
 13 20  4  0
 13 29  4  0
 14 17  4  0
 14 28  4  0
 15 25  2  0
 16 27  4  0
 17 18  4  0
 20 27  1  0
 24 27  4  0
 26 28  4  0
M  END
$$$$

 Created by Python create_sdf_string function

 29 33  0  0  0  0  0  0  0  0999 V2000
    8.8270   -7.0288   18.4251 C   0  0  0  0  0  0  0  0  0  0  0  0
    9.1576   -4.6236   15.8860 O   0  0  0  0  0  0  0  0  0  0  0  0
    9.1509   -5.9108   17.7177 C   0  0  0  0  0  0  0  0  0  0  0  0
    3.6373   -9.5349   16.0582 N   0  0  0  0  0  0  0  0  0  0  0  0
    9.9275   -4.8001   18.0438 N   0  0  0  0  0  0  0  0  0  0  0  0
    8.5908   -5.7425   16.4412 C   0  0  0  0  0  0  0  0  0  0  0  0
   10.5993   -4.8981   21.6068 C   0  0  0  0  0  0  0  0  0  0  0  0
   10.4258   -3.0106   23.0998 C   0  0  0  0  0  0  0  0  0  0  0  0
   10.2148   -3.4364   25.4200 C   0  0  0  0  0  0  0  0  0  0  0  0
    9.7853   -1.1840   24.4927 C   0  0  0  0  0  0  0  0  0  0  0  0
    5.0276   -8.5227   17.5352 C   0  0  0  0  0  0  0  0  0  0  0  0
    9.8187   -2.0895   25.5800 C   0  0  0  0  0  0  0  0  0  0  0  0
    5.6473   -8.7216   15.3158 C   0  0  0  0  0  0  0  0  0  0  0  0
   10.7581   -3.1233   19.4720 N   0  0  0  0  0  0  0  0  0  0  0  0
    9.9571   -4.0573   16.8866 C   0  0  0  0  0  0  0  0  0  0  0  0
    7.6213   -6.5618   16.0087 C   0  0  0  0  0  0  0  0  0  0  0  0
   10.8583   -2.6527   20.7222 C   0  0  0  0  0  0  0  0  0  0  0  0
   10.6412   -3.5089   21.7936 C   0  0  0  0  0  0  0  0  0  0  0  0
   10.4972   -3.8968   24.1589 C   0  0  0  0  0  0  0  0  0  0  0  0
    5.9260   -8.2736   16.5517 C   0  0  0  0  0  0  0  0  0  0  0  0
    3.8816   -9.1166   17.2493 C   0  0  0  0  0  0  0  0  0  0  0  0
   10.1297   -1.6575   23.2324 C   0  0  0  0  0  0  0  0  0  0  0  0
    9.4684   -1.6929   26.7263 F   0  0  0  0  0  0  0  0  0  0  0  0
    7.7963   -7.7906   17.9837 C   0  0  0  0  0  0  0  0  0  0  0  0
   10.5884   -3.0725   16.7902 O   0  0  0  0  0  0  0  0  0  0  0  0
   10.4323   -5.3494   20.3516 C   0  0  0  0  0  0  0  0  0  0  0  0
    7.1156   -7.5454   16.8218 C   0  0  0  0  0  0  0  0  0  0  0  0
   10.3885   -4.4388   19.2773 C   0  0  0  0  0  0  0  0  0  0  0  0
    4.5160   -9.3822   15.0841 C   0  0  0  0  0  0  0  0  0  0  0  0
  1  3  4  0
  1 24  4  0
  2  6  4  0
  2 15  4  0
  3  5  4  0
  3  6  4  0
  4 21  4  0
  4 29  4  0
  5 15  4  0
  5 28  1  0
  6 16  4  0
  7 18  4  0
  7 26  4  0
  8 18  1  0
  8 19  4  0
  8 22  4  0
  9 12  4  0
  9 19  4  0
 10 12  4  0
 10 22  4  0
 11 20  4  0
 11 21  4  0
 12 23  1  0
 13 20  4  0
 13 29  4  0
 14 17  4  0
 14 28  4  0
 15 25  2  0
 16 27  4  0
 17 18  4  0
 20 27  1  0
 24 27  4  0
 26 28  4  0
M  END
$$$$

 Created by Python create_sdf_string function

 29 33  0  0  0  0  0  0  0  0999 V2000
    8.8270   -7.0288   18.4251 C   0  0  0  0  0  0  0  0  0  0  0  0
    9.1576   -4.6236   15.8860 O   0  0  0  0  0  0  0  0  0  0  0  0
    9.1509   -5.9108   17.7177 C   0  0  0  0  0  0  0  0  0  0  0  0
    3.6373   -9.5349   16.0582 N   0  0  0  0  0  0  0  0  0  0  0  0
    9.9275   -4.8001   18.0438 N   0  0  0  0  0  0  0  0  0  0  0  0
    8.5908   -5.7425   16.4412 C   0  0  0  0  0  0  0  0  0  0  0  0
   10.5993   -4.8981   21.6068 C   0  0  0  0  0  0  0  0  0  0  0  0
   10.4258   -3.0106   23.0998 C   0  0  0  0  0  0  0  0  0  0  0  0
   10.2148   -3.4364   25.4200 C   0  0  0  0  0  0  0  0  0  0  0  0
    9.7853   -1.1840   24.4927 C   0  0  0  0  0  0  0  0  0  0  0  0
    5.0276   -8.5227   17.5352 C   0  0  0  0  0  0  0  0  0  0  0  0
    9.8187   -2.0895   25.5800 C   0  0  0  0  0  0  0  0  0  0  0  0
    5.6473   -8.7216   15.3158 C   0  0  0  0  0  0  0  0  0  0  0  0
   10.7581   -3.1233   19.4720 N   0  0  0  0  0  0  0  0  0  0  0  0
    9.9571   -4.0573   16.8866 C   0  0  0  0  0  0  0  0  0  0  0  0
    7.6213   -6.5618   16.0087 C   0  0  0  0  0  0  0  0  0  0  0  0
   10.8583   -2.6527   20.7222 C   0  0  0  0  0  0  0  0  0  0  0  0
   10.6412   -3.5089   21.7936 C   0  0  0  0  0  0  0  0  0  0  0  0
   10.4972   -3.8968   24.1589 C   0  0  0  0  0  0  0  0  0  0  0  0
    5.9260   -8.2736   16.5517 C   0  0  0  0  0  0  0  0  0  0  0  0
    3.8816   -9.1166   17.2493 C   0  0  0  0  0  0  0  0  0  0  0  0
   10.1297   -1.6575   23.2324 C   0  0  0  0  0  0  0  0  0  0  0  0
    9.4684   -1.6929   26.7263 F   0  0  0  0  0  0  0  0  0  0  0  0
    7.7963   -7.7906   17.9837 C   0  0  0  0  0  0  0  0  0  0  0  0
   10.5884   -3.0725   16.7902 O   0  0  0  0  0  0  0  0  0  0  0  0
   10.4323   -5.3494   20.3516 C   0  0  0  0  0  0  0  0  0  0  0  0
    7.1156   -7.5454   16.8218 C   0  0  0  0  0  0  0  0  0  0  0  0
   10.3885   -4.4388   19.2773 C   0  0  0  0  0  0  0  0  0  0  0  0
    4.5160   -9.3822   15.0841 C   0  0  0  0  0  0  0  0  0  0  0  0
  1  3  4  0
  1 24  4  0
  2  6  4  0
  2 15  4  0
  3  5  4  0
  3  6  4  0
  4 21  4  0
  4 29  4  0
  5 15  4  0
  5 28  1  0
  6 16  4  0
  7 18  4  0
  7 26  4  0
  8 18  1  0
  8 19  4  0
  8 22  4  0
  9 12  4  0
  9 19  4  0
 10 12  4  0
 10 22  4  0
 11 20  4  0
 11 21  4  0
 12 23  1  0
 13 20  4  0
 13 29  4  0
 14 17  4  0
 14 28  4  0
 15 25  2  0
 16 27  4  0
 17 18  4  0
 20 27  1  0
 24 27  4  0
 26 28  4  0
M  END
$$$$

 Created by Python create_sdf_string function

 29 33  0  0  0  0  0  0  0  0999 V2000
    8.8270   -7.0288   18.4251 C   0  0  0  0  0  0  0  0  0  0  0  0
    9.1576   -4.6236   15.8860 O   0  0  0  0  0  0  0  0  0  0  0  0
    9.1509   -5.9108   17.7177 C   0  0  0  0  0  0  0  0  0  0  0  0
    3.6373   -9.5349   16.0582 N   0  0  0  0  0  0  0  0  0  0  0  0
    9.9275   -4.8001   18.0438 N   0  0  0  0  0  0  0  0  0  0  0  0
    8.5908   -5.7425   16.4412 C   0  0  0  0  0  0  0  0  0  0  0  0
   10.5993   -4.8981   21.6068 C   0  0  0  0  0  0  0  0  0  0  0  0
   10.4258   -3.0106   23.0998 C   0  0  0  0  0  0  0  0  0  0  0  0
   10.2148   -3.4364   25.4200 C   0  0  0  0  0  0  0  0  0  0  0  0
    9.7853   -1.1840   24.4927 C   0  0  0  0  0  0  0  0  0  0  0  0
    5.0276   -8.5227   17.5352 C   0  0  0  0  0  0  0  0  0  0  0  0
    9.8187   -2.0895   25.5800 C   0  0  0  0  0  0  0  0  0  0  0  0
    5.6473   -8.7216   15.3158 C   0  0  0  0  0  0  0  0  0  0  0  0
   10.7581   -3.1233   19.4720 N   0  0  0  0  0  0  0  0  0  0  0  0
    9.9571   -4.0573   16.8866 C   0  0  0  0  0  0  0  0  0  0  0  0
    7.6213   -6.5618   16.0087 C   0  0  0  0  0  0  0  0  0  0  0  0
   10.8583   -2.6527   20.7222 C   0  0  0  0  0  0  0  0  0  0  0  0
   10.6412   -3.5089   21.7936 C   0  0  0  0  0  0  0  0  0  0  0  0
   10.4972   -3.8968   24.1589 C   0  0  0  0  0  0  0  0  0  0  0  0
    5.9260   -8.2736   16.5517 C   0  0  0  0  0  0  0  0  0  0  0  0
    3.8816   -9.1166   17.2493 C   0  0  0  0  0  0  0  0  0  0  0  0
   10.1297   -1.6575   23.2324 C   0  0  0  0  0  0  0  0  0  0  0  0
    9.4684   -1.6929   26.7263 F   0  0  0  0  0  0  0  0  0  0  0  0
    7.7963   -7.7906   17.9837 C   0  0  0  0  0  0  0  0  0  0  0  0
   10.5884   -3.0725   16.7902 O   0  0  0  0  0  0  0  0  0  0  0  0
   10.4323   -5.3494   20.3516 C   0  0  0  0  0  0  0  0  0  0  0  0
    7.1156   -7.5454   16.8218 C   0  0  0  0  0  0  0  0  0  0  0  0
   10.3885   -4.4388   19.2773 C   0  0  0  0  0  0  0  0  0  0  0  0
    4.5160   -9.3822   15.0841 C   0  0  0  0  0  0  0  0  0  0  0  0
  1  3  4  0
  1 24  4  0
  2  6  4  0
  2 15  4  0
  3  5  4  0
  3  6  4  0
  4 21  4  0
  4 29  4  0
  5 15  4  0
  5 28  1  0
  6 16  4  0
  7 18  4  0
  7 26  4  0
  8 18  1  0
  8 19  4  0
  8 22  4  0
  9 12  4  0
  9 19  4  0
 10 12  4  0
 10 22  4  0
 11 20  4  0
 11 21  4  0
 12 23  1  0
 13 20  4  0
 13 29  4  0
 14 17  4  0
 14 28  4  0
 15 25  2  0
 16 27  4  0
 17 18  4  0
 20 27  1  0
 24 27  4  0
 26 28  4  0
M  END
$$$$

 Created by Python create_sdf_string function

 29 33  0  0  0  0  0  0  0  0999 V2000
    8.8270   -7.0288   18.4251 C   0  0  0  0  0  0  0  0  0  0  0  0
    9.1576   -4.6236   15.8860 O   0  0  0  0  0  0  0  0  0  0  0  0
    9.1509   -5.9108   17.7177 C   0  0  0  0  0  0  0  0  0  0  0  0
    3.6373   -9.5349   16.0582 N   0  0  0  0  0  0  0  0  0  0  0  0
    9.9275   -4.8001   18.0438 N   0  0  0  0  0  0  0  0  0  0  0  0
    8.5908   -5.7425   16.4412 C   0  0  0  0  0  0  0  0  0  0  0  0
   10.5993   -4.8981   21.6068 C   0  0  0  0  0  0  0  0  0  0  0  0
   10.4258   -3.0106   23.0998 C   0  0  0  0  0  0  0  0  0  0  0  0
   10.2148   -3.4364   25.4200 C   0  0  0  0  0  0  0  0  0  0  0  0
    9.7853   -1.1840   24.4927 C   0  0  0  0  0  0  0  0  0  0  0  0
    5.0276   -8.5227   17.5352 C   0  0  0  0  0  0  0  0  0  0  0  0
    9.8187   -2.0895   25.5800 C   0  0  0  0  0  0  0  0  0  0  0  0
    5.6473   -8.7216   15.3158 C   0  0  0  0  0  0  0  0  0  0  0  0
   10.7581   -3.1233   19.4720 N   0  0  0  0  0  0  0  0  0  0  0  0
    9.9571   -4.0573   16.8866 C   0  0  0  0  0  0  0  0  0  0  0  0
    7.6213   -6.5618   16.0087 C   0  0  0  0  0  0  0  0  0  0  0  0
   10.8583   -2.6527   20.7222 C   0  0  0  0  0  0  0  0  0  0  0  0
   10.6412   -3.5089   21.7936 C   0  0  0  0  0  0  0  0  0  0  0  0
   10.4972   -3.8968   24.1589 C   0  0  0  0  0  0  0  0  0  0  0  0
    5.9260   -8.2736   16.5517 C   0  0  0  0  0  0  0  0  0  0  0  0
    3.8816   -9.1166   17.2493 C   0  0  0  0  0  0  0  0  0  0  0  0
   10.1297   -1.6575   23.2324 C   0  0  0  0  0  0  0  0  0  0  0  0
    9.4684   -1.6929   26.7263 F   0  0  0  0  0  0  0  0  0  0  0  0
    7.7963   -7.7906   17.9837 C   0  0  0  0  0  0  0  0  0  0  0  0
   10.5884   -3.0725   16.7902 O   0  0  0  0  0  0  0  0  0  0  0  0
   10.4323   -5.3494   20.3516 C   0  0  0  0  0  0  0  0  0  0  0  0
    7.1156   -7.5454   16.8218 C   0  0  0  0  0  0  0  0  0  0  0  0
   10.3885   -4.4388   19.2773 C   0  0  0  0  0  0  0  0  0  0  0  0
    4.5160   -9.3822   15.0841 C   0  0  0  0  0  0  0  0  0  0  0  0
  1  3  4  0
  1 24  4  0
  2  6  4  0
  2 15  4  0
  3  5  4  0
  3  6  4  0
  4 21  4  0
  4 29  4  0
  5 15  4  0
  5 28  1  0
  6 16  4  0
  7 18  4  0
  7 26  4  0
  8 18  1  0
  8 19  4  0
  8 22  4  0
  9 12  4  0
  9 19  4  0
 10 12  4  0
 10 22  4  0
 11 20  4  0
 11 21  4  0
 12 23  1  0
 13 20  4  0
 13 29  4  0
 14 17  4  0
 14 28  4  0
 15 25  2  0
 16 27  4  0
 17 18  4  0
 20 27  1  0
 24 27  4  0
 26 28  4  0
M  END
$$$$

 Created by Python create_sdf_string function

 29 33  0  0  0  0  0  0  0  0999 V2000
    8.8270   -7.0288   18.4251 C   0  0  0  0  0  0  0  0  0  0  0  0
    9.1576   -4.6236   15.8860 O   0  0  0  0  0  0  0  0  0  0  0  0
    9.1509   -5.9108   17.7177 C   0  0  0  0  0  0  0  0  0  0  0  0
    3.6373   -9.5349   16.0582 N   0  0  0  0  0  0  0  0  0  0  0  0
    9.9275   -4.8001   18.0438 N   0  0  0  0  0  0  0  0  0  0  0  0
    8.5908   -5.7425   16.4412 C   0  0  0  0  0  0  0  0  0  0  0  0
   10.5993   -4.8981   21.6068 C   0  0  0  0  0  0  0  0  0  0  0  0
   10.4258   -3.0106   23.0998 C   0  0  0  0  0  0  0  0  0  0  0  0
   10.2148   -3.4364   25.4200 C   0  0  0  0  0  0  0  0  0  0  0  0
    9.7853   -1.1840   24.4927 C   0  0  0  0  0  0  0  0  0  0  0  0
    5.0276   -8.5227   17.5352 C   0  0  0  0  0  0  0  0  0  0  0  0
    9.8187   -2.0895   25.5800 C   0  0  0  0  0  0  0  0  0  0  0  0
    5.6473   -8.7216   15.3158 C   0  0  0  0  0  0  0  0  0  0  0  0
   10.7581   -3.1233   19.4720 N   0  0  0  0  0  0  0  0  0  0  0  0
    9.9571   -4.0573   16.8866 C   0  0  0  0  0  0  0  0  0  0  0  0
    7.6213   -6.5618   16.0087 C   0  0  0  0  0  0  0  0  0  0  0  0
   10.8583   -2.6527   20.7222 C   0  0  0  0  0  0  0  0  0  0  0  0
   10.6412   -3.5089   21.7936 C   0  0  0  0  0  0  0  0  0  0  0  0
   10.4972   -3.8968   24.1589 C   0  0  0  0  0  0  0  0  0  0  0  0
    5.9260   -8.2736   16.5517 C   0  0  0  0  0  0  0  0  0  0  0  0
    3.8816   -9.1166   17.2493 C   0  0  0  0  0  0  0  0  0  0  0  0
   10.1297   -1.6575   23.2324 C   0  0  0  0  0  0  0  0  0  0  0  0
    9.4684   -1.6929   26.7263 F   0  0  0  0  0  0  0  0  0  0  0  0
    7.7963   -7.7906   17.9837 C   0  0  0  0  0  0  0  0  0  0  0  0
   10.5884   -3.0725   16.7902 O   0  0  0  0  0  0  0  0  0  0  0  0
   10.4323   -5.3494   20.3516 C   0  0  0  0  0  0  0  0  0  0  0  0
    7.1156   -7.5454   16.8218 C   0  0  0  0  0  0  0  0  0  0  0  0
   10.3885   -4.4388   19.2773 C   0  0  0  0  0  0  0  0  0  0  0  0
    4.5160   -9.3822   15.0841 C   0  0  0  0  0  0  0  0  0  0  0  0
  1  3  4  0
  1 24  4  0
  2  6  4  0
  2 15  4  0
  3  5  4  0
  3  6  4  0
  4 21  4  0
  4 29  4  0
  5 15  4  0
  5 28  1  0
  6 16  4  0
  7 18  4  0
  7 26  4  0
  8 18  1  0
  8 19  4  0
  8 22  4  0
  9 12  4  0
  9 19  4  0
 10 12  4  0
 10 22  4  0
 11 20  4  0
 11 21  4  0
 12 23  1  0
 13 20  4  0
 13 29  4  0
 14 17  4  0
 14 28  4  0
 15 25  2  0
 16 27  4  0
 17 18  4  0
 20 27  1  0
 24 27  4  0
 26 28  4  0
M  END
$$$$

 Created by Python create_sdf_string function

 29 33  0  0  0  0  0  0  0  0999 V2000
    8.8270   -7.0288   18.4251 C   0  0  0  0  0  0  0  0  0  0  0  0
    9.1576   -4.6236   15.8860 O   0  0  0  0  0  0  0  0  0  0  0  0
    9.1509   -5.9108   17.7177 C   0  0  0  0  0  0  0  0  0  0  0  0
    3.6373   -9.5349   16.0582 N   0  0  0  0  0  0  0  0  0  0  0  0
    9.9275   -4.8001   18.0438 N   0  0  0  0  0  0  0  0  0  0  0  0
    8.5908   -5.7425   16.4412 C   0  0  0  0  0  0  0  0  0  0  0  0
   10.5993   -4.8981   21.6068 C   0  0  0  0  0  0  0  0  0  0  0  0
   10.4258   -3.0106   23.0998 C   0  0  0  0  0  0  0  0  0  0  0  0
   10.2148   -3.4364   25.4200 C   0  0  0  0  0  0  0  0  0  0  0  0
    9.7853   -1.1840   24.4927 C   0  0  0  0  0  0  0  0  0  0  0  0
    5.0276   -8.5227   17.5352 C   0  0  0  0  0  0  0  0  0  0  0  0
    9.8187   -2.0895   25.5800 C   0  0  0  0  0  0  0  0  0  0  0  0
    5.6473   -8.7216   15.3158 C   0  0  0  0  0  0  0  0  0  0  0  0
   10.7581   -3.1233   19.4720 N   0  0  0  0  0  0  0  0  0  0  0  0
    9.9571   -4.0573   16.8866 C   0  0  0  0  0  0  0  0  0  0  0  0
    7.6213   -6.5618   16.0087 C   0  0  0  0  0  0  0  0  0  0  0  0
   10.8583   -2.6527   20.7222 C   0  0  0  0  0  0  0  0  0  0  0  0
   10.6412   -3.5089   21.7936 C   0  0  0  0  0  0  0  0  0  0  0  0
   10.4972   -3.8968   24.1589 C   0  0  0  0  0  0  0  0  0  0  0  0
    5.9260   -8.2736   16.5517 C   0  0  0  0  0  0  0  0  0  0  0  0
    3.8816   -9.1166   17.2493 C   0  0  0  0  0  0  0  0  0  0  0  0
   10.1297   -1.6575   23.2324 C   0  0  0  0  0  0  0  0  0  0  0  0
    9.4684   -1.6929   26.7263 F   0  0  0  0  0  0  0  0  0  0  0  0
    7.7963   -7.7906   17.9837 C   0  0  0  0  0  0  0  0  0  0  0  0
   10.5884   -3.0725   16.7902 O   0  0  0  0  0  0  0  0  0  0  0  0
   10.4323   -5.3494   20.3516 C   0  0  0  0  0  0  0  0  0  0  0  0
    7.1156   -7.5454   16.8218 C   0  0  0  0  0  0  0  0  0  0  0  0
   10.3885   -4.4388   19.2773 C   0  0  0  0  0  0  0  0  0  0  0  0
    4.5160   -9.3822   15.0841 C   0  0  0  0  0  0  0  0  0  0  0  0
  1  3  4  0
  1 24  4  0
  2  6  4  0
  2 15  4  0
  3  5  4  0
  3  6  4  0
  4 21  4  0
  4 29  4  0
  5 15  4  0
  5 28  1  0
  6 16  4  0
  7 18  4  0
  7 26  4  0
  8 18  1  0
  8 19  4  0
  8 22  4  0
  9 12  4  0
  9 19  4  0
 10 12  4  0
 10 22  4  0
 11 20  4  0
 11 21  4  0
 12 23  1  0
 13 20  4  0
 13 29  4  0
 14 17  4  0
 14 28  4  0
 15 25  2  0
 16 27  4  0
 17 18  4  0
 20 27  1  0
 24 27  4  0
 26 28  4  0
M  END
$$$$

 Created by Python create_sdf_string function

 29 33  0  0  0  0  0  0  0  0999 V2000
    8.8270   -7.0288   18.4251 C   0  0  0  0  0  0  0  0  0  0  0  0
    9.1576   -4.6236   15.8860 O   0  0  0  0  0  0  0  0  0  0  0  0
    9.1509   -5.9108   17.7177 C   0  0  0  0  0  0  0  0  0  0  0  0
    3.6373   -9.5349   16.0582 N   0  0  0  0  0  0  0  0  0  0  0  0
    9.9275   -4.8001   18.0438 N   0  0  0  0  0  0  0  0  0  0  0  0
    8.5908   -5.7425   16.4412 C   0  0  0  0  0  0  0  0  0  0  0  0
   10.5993   -4.8981   21.6068 C   0  0  0  0  0  0  0  0  0  0  0  0
   10.4258   -3.0106   23.0998 C   0  0  0  0  0  0  0  0  0  0  0  0
   10.2148   -3.4364   25.4200 C   0  0  0  0  0  0  0  0  0  0  0  0
    9.7853   -1.1840   24.4927 C   0  0  0  0  0  0  0  0  0  0  0  0
    5.0276   -8.5227   17.5352 C   0  0  0  0  0  0  0  0  0  0  0  0
    9.8187   -2.0895   25.5800 C   0  0  0  0  0  0  0  0  0  0  0  0
    5.6473   -8.7216   15.3158 C   0  0  0  0  0  0  0  0  0  0  0  0
   10.7581   -3.1233   19.4720 N   0  0  0  0  0  0  0  0  0  0  0  0
    9.9571   -4.0573   16.8866 C   0  0  0  0  0  0  0  0  0  0  0  0
    7.6213   -6.5618   16.0087 C   0  0  0  0  0  0  0  0  0  0  0  0
   10.8583   -2.6527   20.7222 C   0  0  0  0  0  0  0  0  0  0  0  0
   10.6412   -3.5089   21.7936 C   0  0  0  0  0  0  0  0  0  0  0  0
   10.4972   -3.8968   24.1589 C   0  0  0  0  0  0  0  0  0  0  0  0
    5.9260   -8.2736   16.5517 C   0  0  0  0  0  0  0  0  0  0  0  0
    3.8816   -9.1166   17.2493 C   0  0  0  0  0  0  0  0  0  0  0  0
   10.1297   -1.6575   23.2324 C   0  0  0  0  0  0  0  0  0  0  0  0
    9.4684   -1.6929   26.7263 F   0  0  0  0  0  0  0  0  0  0  0  0
    7.7963   -7.7906   17.9837 C   0  0  0  0  0  0  0  0  0  0  0  0
   10.5884   -3.0725   16.7902 O   0  0  0  0  0  0  0  0  0  0  0  0
   10.4323   -5.3494   20.3516 C   0  0  0  0  0  0  0  0  0  0  0  0
    7.1156   -7.5454   16.8218 C   0  0  0  0  0  0  0  0  0  0  0  0
   10.3885   -4.4388   19.2773 C   0  0  0  0  0  0  0  0  0  0  0  0
    4.5160   -9.3822   15.0841 C   0  0  0  0  0  0  0  0  0  0  0  0
  1  3  4  0
  1 24  4  0
  2  6  4  0
  2 15  4  0
  3  5  4  0
  3  6  4  0
  4 21  4  0
  4 29  4  0
  5 15  4  0
  5 28  1  0
  6 16  4  0
  7 18  4  0
  7 26  4  0
  8 18  1  0
  8 19  4  0
  8 22  4  0
  9 12  4  0
  9 19  4  0
 10 12  4  0
 10 22  4  0
 11 20  4  0
 11 21  4  0
 12 23  1  0
 13 20  4  0
 13 29  4  0
 14 17  4  0
 14 28  4  0
 15 25  2  0
 16 27  4  0
 17 18  4  0
 20 27  1  0
 24 27  4  0
 26 28  4  0
M  END
$$$$

 Created by Python create_sdf_string function

 29 33  0  0  0  0  0  0  0  0999 V2000
    8.8270   -7.0288   18.4251 C   0  0  0  0  0  0  0  0  0  0  0  0
    9.1576   -4.6236   15.8860 O   0  0  0  0  0  0  0  0  0  0  0  0
    9.1509   -5.9108   17.7177 C   0  0  0  0  0  0  0  0  0  0  0  0
    3.6373   -9.5349   16.0582 N   0  0  0  0  0  0  0  0  0  0  0  0
    9.9275   -4.8001   18.0438 N   0  0  0  0  0  0  0  0  0  0  0  0
    8.5908   -5.7425   16.4412 C   0  0  0  0  0  0  0  0  0  0  0  0
   10.5993   -4.8981   21.6068 C   0  0  0  0  0  0  0  0  0  0  0  0
   10.4258   -3.0106   23.0998 C   0  0  0  0  0  0  0  0  0  0  0  0
   10.2148   -3.4364   25.4200 C   0  0  0  0  0  0  0  0  0  0  0  0
    9.7853   -1.1840   24.4927 C   0  0  0  0  0  0  0  0  0  0  0  0
    5.0276   -8.5227   17.5352 C   0  0  0  0  0  0  0  0  0  0  0  0
    9.8187   -2.0895   25.5800 C   0  0  0  0  0  0  0  0  0  0  0  0
    5.6473   -8.7216   15.3158 C   0  0  0  0  0  0  0  0  0  0  0  0
   10.7581   -3.1233   19.4720 N   0  0  0  0  0  0  0  0  0  0  0  0
    9.9571   -4.0573   16.8866 C   0  0  0  0  0  0  0  0  0  0  0  0
    7.6213   -6.5618   16.0087 C   0  0  0  0  0  0  0  0  0  0  0  0
   10.8583   -2.6527   20.7222 C   0  0  0  0  0  0  0  0  0  0  0  0
   10.6412   -3.5089   21.7936 C   0  0  0  0  0  0  0  0  0  0  0  0
   10.4972   -3.8968   24.1589 C   0  0  0  0  0  0  0  0  0  0  0  0
    5.9260   -8.2736   16.5517 C   0  0  0  0  0  0  0  0  0  0  0  0
    3.8816   -9.1166   17.2493 C   0  0  0  0  0  0  0  0  0  0  0  0
   10.1297   -1.6575   23.2324 C   0  0  0  0  0  0  0  0  0  0  0  0
    9.4684   -1.6929   26.7263 F   0  0  0  0  0  0  0  0  0  0  0  0
    7.7963   -7.7906   17.9837 C   0  0  0  0  0  0  0  0  0  0  0  0
   10.5884   -3.0725   16.7902 O   0  0  0  0  0  0  0  0  0  0  0  0
   10.4323   -5.3494   20.3516 C   0  0  0  0  0  0  0  0  0  0  0  0
    7.1156   -7.5454   16.8218 C   0  0  0  0  0  0  0  0  0  0  0  0
   10.3885   -4.4388   19.2773 C   0  0  0  0  0  0  0  0  0  0  0  0
    4.5160   -9.3822   15.0841 C   0  0  0  0  0  0  0  0  0  0  0  0
  1  3  4  0
  1 24  4  0
  2  6  4  0
  2 15  4  0
  3  5  4  0
  3  6  4  0
  4 21  4  0
  4 29  4  0
  5 15  4  0
  5 28  1  0
  6 16  4  0
  7 18  4  0
  7 26  4  0
  8 18  1  0
  8 19  4  0
  8 22  4  0
  9 12  4  0
  9 19  4  0
 10 12  4  0
 10 22  4  0
 11 20  4  0
 11 21  4  0
 12 23  1  0
 13 20  4  0
 13 29  4  0
 14 17  4  0
 14 28  4  0
 15 25  2  0
 16 27  4  0
 17 18  4  0
 20 27  1  0
 24 27  4  0
 26 28  4  0
M  END
$$$$

 Created by Python create_sdf_string function

 29 33  0  0  0  0  0  0  0  0999 V2000
    8.8270   -7.0288   18.4251 C   0  0  0  0  0  0  0  0  0  0  0  0
    9.1576   -4.6236   15.8860 O   0  0  0  0  0  0  0  0  0  0  0  0
    9.1509   -5.9108   17.7177 C   0  0  0  0  0  0  0  0  0  0  0  0
    3.6373   -9.5349   16.0582 N   0  0  0  0  0  0  0  0  0  0  0  0
    9.9275   -4.8001   18.0438 N   0  0  0  0  0  0  0  0  0  0  0  0
    8.5908   -5.7425   16.4412 C   0  0  0  0  0  0  0  0  0  0  0  0
   10.5993   -4.8981   21.6068 C   0  0  0  0  0  0  0  0  0  0  0  0
   10.4258   -3.0106   23.0998 C   0  0  0  0  0  0  0  0  0  0  0  0
   10.2148   -3.4364   25.4200 C   0  0  0  0  0  0  0  0  0  0  0  0
    9.7853   -1.1840   24.4927 C   0  0  0  0  0  0  0  0  0  0  0  0
    5.0276   -8.5227   17.5352 C   0  0  0  0  0  0  0  0  0  0  0  0
    9.8187   -2.0895   25.5800 C   0  0  0  0  0  0  0  0  0  0  0  0
    5.6473   -8.7216   15.3158 C   0  0  0  0  0  0  0  0  0  0  0  0
   10.7581   -3.1233   19.4720 N   0  0  0  0  0  0  0  0  0  0  0  0
    9.9571   -4.0573   16.8866 C   0  0  0  0  0  0  0  0  0  0  0  0
    7.6213   -6.5618   16.0087 C   0  0  0  0  0  0  0  0  0  0  0  0
   10.8583   -2.6527   20.7222 C   0  0  0  0  0  0  0  0  0  0  0  0
   10.6412   -3.5089   21.7936 C   0  0  0  0  0  0  0  0  0  0  0  0
   10.4972   -3.8968   24.1589 C   0  0  0  0  0  0  0  0  0  0  0  0
    5.9260   -8.2736   16.5517 C   0  0  0  0  0  0  0  0  0  0  0  0
    3.8816   -9.1166   17.2493 C   0  0  0  0  0  0  0  0  0  0  0  0
   10.1297   -1.6575   23.2324 C   0  0  0  0  0  0  0  0  0  0  0  0
    9.4684   -1.6929   26.7263 F   0  0  0  0  0  0  0  0  0  0  0  0
    7.7963   -7.7906   17.9837 C   0  0  0  0  0  0  0  0  0  0  0  0
   10.5884   -3.0725   16.7902 O   0  0  0  0  0  0  0  0  0  0  0  0
   10.4323   -5.3494   20.3516 C   0  0  0  0  0  0  0  0  0  0  0  0
    7.1156   -7.5454   16.8218 C   0  0  0  0  0  0  0  0  0  0  0  0
   10.3885   -4.4388   19.2773 C   0  0  0  0  0  0  0  0  0  0  0  0
    4.5160   -9.3822   15.0841 C   0  0  0  0  0  0  0  0  0  0  0  0
  1  3  4  0
  1 24  4  0
  2  6  4  0
  2 15  4  0
  3  5  4  0
  3  6  4  0
  4 21  4  0
  4 29  4  0
  5 15  4  0
  5 28  1  0
  6 16  4  0
  7 18  4  0
  7 26  4  0
  8 18  1  0
  8 19  4  0
  8 22  4  0
  9 12  4  0
  9 19  4  0
 10 12  4  0
 10 22  4  0
 11 20  4  0
 11 21  4  0
 12 23  1  0
 13 20  4  0
 13 29  4  0
 14 17  4  0
 14 28  4  0
 15 25  2  0
 16 27  4  0
 17 18  4  0
 20 27  1  0
 24 27  4  0
 26 28  4  0
M  END
$$$$

 Created by Python create_sdf_string function

 29 33  0  0  0  0  0  0  0  0999 V2000
    8.8270   -7.0288   18.4251 C   0  0  0  0  0  0  0  0  0  0  0  0
    9.1576   -4.6236   15.8860 O   0  0  0  0  0  0  0  0  0  0  0  0
    9.1509   -5.9108   17.7177 C   0  0  0  0  0  0  0  0  0  0  0  0
    3.6373   -9.5349   16.0582 N   0  0  0  0  0  0  0  0  0  0  0  0
    9.9275   -4.8001   18.0438 N   0  0  0  0  0  0  0  0  0  0  0  0
    8.5908   -5.7425   16.4412 C   0  0  0  0  0  0  0  0  0  0  0  0
   10.5993   -4.8981   21.6068 C   0  0  0  0  0  0  0  0  0  0  0  0
   10.4258   -3.0106   23.0998 C   0  0  0  0  0  0  0  0  0  0  0  0
   10.2148   -3.4364   25.4200 C   0  0  0  0  0  0  0  0  0  0  0  0
    9.7853   -1.1840   24.4927 C   0  0  0  0  0  0  0  0  0  0  0  0
    5.0276   -8.5227   17.5352 C   0  0  0  0  0  0  0  0  0  0  0  0
    9.8187   -2.0895   25.5800 C   0  0  0  0  0  0  0  0  0  0  0  0
    5.6473   -8.7216   15.3158 C   0  0  0  0  0  0  0  0  0  0  0  0
   10.7581   -3.1233   19.4720 N   0  0  0  0  0  0  0  0  0  0  0  0
    9.9571   -4.0573   16.8866 C   0  0  0  0  0  0  0  0  0  0  0  0
    7.6213   -6.5618   16.0087 C   0  0  0  0  0  0  0  0  0  0  0  0
   10.8583   -2.6527   20.7222 C   0  0  0  0  0  0  0  0  0  0  0  0
   10.6412   -3.5089   21.7936 C   0  0  0  0  0  0  0  0  0  0  0  0
   10.4972   -3.8968   24.1589 C   0  0  0  0  0  0  0  0  0  0  0  0
    5.9260   -8.2736   16.5517 C   0  0  0  0  0  0  0  0  0  0  0  0
    3.8816   -9.1166   17.2493 C   0  0  0  0  0  0  0  0  0  0  0  0
   10.1297   -1.6575   23.2324 C   0  0  0  0  0  0  0  0  0  0  0  0
    9.4684   -1.6929   26.7263 F   0  0  0  0  0  0  0  0  0  0  0  0
    7.7963   -7.7906   17.9837 C   0  0  0  0  0  0  0  0  0  0  0  0
   10.5884   -3.0725   16.7902 O   0  0  0  0  0  0  0  0  0  0  0  0
   10.4323   -5.3494   20.3516 C   0  0  0  0  0  0  0  0  0  0  0  0
    7.1156   -7.5454   16.8218 C   0  0  0  0  0  0  0  0  0  0  0  0
   10.3885   -4.4388   19.2773 C   0  0  0  0  0  0  0  0  0  0  0  0
    4.5160   -9.3822   15.0841 C   0  0  0  0  0  0  0  0  0  0  0  0
  1  3  4  0
  1 24  4  0
  2  6  4  0
  2 15  4  0
  3  5  4  0
  3  6  4  0
  4 21  4  0
  4 29  4  0
  5 15  4  0
  5 28  1  0
  6 16  4  0
  7 18  4  0
  7 26  4  0
  8 18  1  0
  8 19  4  0
  8 22  4  0
  9 12  4  0
  9 19  4  0
 10 12  4  0
 10 22  4  0
 11 20  4  0
 11 21  4  0
 12 23  1  0
 13 20  4  0
 13 29  4  0
 14 17  4  0
 14 28  4  0
 15 25  2  0
 16 27  4  0
 17 18  4  0
 20 27  1  0
 24 27  4  0
 26 28  4  0
M  END
$$$$

 Created by Python create_sdf_string function

 29 33  0  0  0  0  0  0  0  0999 V2000
    8.8270   -7.0288   18.4251 C   0  0  0  0  0  0  0  0  0  0  0  0
    9.1576   -4.6236   15.8860 O   0  0  0  0  0  0  0  0  0  0  0  0
    9.1509   -5.9108   17.7177 C   0  0  0  0  0  0  0  0  0  0  0  0
    3.6373   -9.5349   16.0582 N   0  0  0  0  0  0  0  0  0  0  0  0
    9.9275   -4.8001   18.0438 N   0  0  0  0  0  0  0  0  0  0  0  0
    8.5908   -5.7425   16.4412 C   0  0  0  0  0  0  0  0  0  0  0  0
   10.5993   -4.8981   21.6068 C   0  0  0  0  0  0  0  0  0  0  0  0
   10.4258   -3.0106   23.0998 C   0  0  0  0  0  0  0  0  0  0  0  0
   10.2148   -3.4364   25.4200 C   0  0  0  0  0  0  0  0  0  0  0  0
    9.7853   -1.1840   24.4927 C   0  0  0  0  0  0  0  0  0  0  0  0
    5.0276   -8.5227   17.5352 C   0  0  0  0  0  0  0  0  0  0  0  0
    9.8187   -2.0895   25.5800 C   0  0  0  0  0  0  0  0  0  0  0  0
    5.6473   -8.7216   15.3158 C   0  0  0  0  0  0  0  0  0  0  0  0
   10.7581   -3.1233   19.4720 N   0  0  0  0  0  0  0  0  0  0  0  0
    9.9571   -4.0573   16.8866 C   0  0  0  0  0  0  0  0  0  0  0  0
    7.6213   -6.5618   16.0087 C   0  0  0  0  0  0  0  0  0  0  0  0
   10.8583   -2.6527   20.7222 C   0  0  0  0  0  0  0  0  0  0  0  0
   10.6412   -3.5089   21.7936 C   0  0  0  0  0  0  0  0  0  0  0  0
   10.4972   -3.8968   24.1589 C   0  0  0  0  0  0  0  0  0  0  0  0
    5.9260   -8.2736   16.5517 C   0  0  0  0  0  0  0  0  0  0  0  0
    3.8816   -9.1166   17.2493 C   0  0  0  0  0  0  0  0  0  0  0  0
   10.1297   -1.6575   23.2324 C   0  0  0  0  0  0  0  0  0  0  0  0
    9.4684   -1.6929   26.7263 F   0  0  0  0  0  0  0  0  0  0  0  0
    7.7963   -7.7906   17.9837 C   0  0  0  0  0  0  0  0  0  0  0  0
   10.5884   -3.0725   16.7902 O   0  0  0  0  0  0  0  0  0  0  0  0
   10.4323   -5.3494   20.3516 C   0  0  0  0  0  0  0  0  0  0  0  0
    7.1156   -7.5454   16.8218 C   0  0  0  0  0  0  0  0  0  0  0  0
   10.3885   -4.4388   19.2773 C   0  0  0  0  0  0  0  0  0  0  0  0
    4.5160   -9.3822   15.0841 C   0  0  0  0  0  0  0  0  0  0  0  0
  1  3  4  0
  1 24  4  0
  2  6  4  0
  2 15  4  0
  3  5  4  0
  3  6  4  0
  4 21  4  0
  4 29  4  0
  5 15  4  0
  5 28  1  0
  6 16  4  0
  7 18  4  0
  7 26  4  0
  8 18  1  0
  8 19  4  0
  8 22  4  0
  9 12  4  0
  9 19  4  0
 10 12  4  0
 10 22  4  0
 11 20  4  0
 11 21  4  0
 12 23  1  0
 13 20  4  0
 13 29  4  0
 14 17  4  0
 14 28  4  0
 15 25  2  0
 16 27  4  0
 17 18  4  0
 20 27  1  0
 24 27  4  0
 26 28  4  0
M  END
$$$$

 Created by Python create_sdf_string function

 29 33  0  0  0  0  0  0  0  0999 V2000
    8.8270   -7.0288   18.4251 C   0  0  0  0  0  0  0  0  0  0  0  0
    9.1576   -4.6236   15.8860 O   0  0  0  0  0  0  0  0  0  0  0  0
    9.1509   -5.9108   17.7177 C   0  0  0  0  0  0  0  0  0  0  0  0
    3.6373   -9.5349   16.0582 N   0  0  0  0  0  0  0  0  0  0  0  0
    9.9275   -4.8001   18.0438 N   0  0  0  0  0  0  0  0  0  0  0  0
    8.5908   -5.7425   16.4412 C   0  0  0  0  0  0  0  0  0  0  0  0
   10.5993   -4.8981   21.6068 C   0  0  0  0  0  0  0  0  0  0  0  0
   10.4258   -3.0106   23.0998 C   0  0  0  0  0  0  0  0  0  0  0  0
   10.2148   -3.4364   25.4200 C   0  0  0  0  0  0  0  0  0  0  0  0
    9.7853   -1.1840   24.4927 C   0  0  0  0  0  0  0  0  0  0  0  0
    5.0276   -8.5227   17.5352 C   0  0  0  0  0  0  0  0  0  0  0  0
    9.8187   -2.0895   25.5800 C   0  0  0  0  0  0  0  0  0  0  0  0
    5.6473   -8.7216   15.3158 C   0  0  0  0  0  0  0  0  0  0  0  0
   10.7581   -3.1233   19.4720 N   0  0  0  0  0  0  0  0  0  0  0  0
    9.9571   -4.0573   16.8866 C   0  0  0  0  0  0  0  0  0  0  0  0
    7.6213   -6.5618   16.0087 C   0  0  0  0  0  0  0  0  0  0  0  0
   10.8583   -2.6527   20.7222 C   0  0  0  0  0  0  0  0  0  0  0  0
   10.6412   -3.5089   21.7936 C   0  0  0  0  0  0  0  0  0  0  0  0
   10.4972   -3.8968   24.1589 C   0  0  0  0  0  0  0  0  0  0  0  0
    5.9260   -8.2736   16.5517 C   0  0  0  0  0  0  0  0  0  0  0  0
    3.8816   -9.1166   17.2493 C   0  0  0  0  0  0  0  0  0  0  0  0
   10.1297   -1.6575   23.2324 C   0  0  0  0  0  0  0  0  0  0  0  0
    9.4684   -1.6929   26.7263 F   0  0  0  0  0  0  0  0  0  0  0  0
    7.7963   -7.7906   17.9837 C   0  0  0  0  0  0  0  0  0  0  0  0
   10.5884   -3.0725   16.7902 O   0  0  0  0  0  0  0  0  0  0  0  0
   10.4323   -5.3494   20.3516 C   0  0  0  0  0  0  0  0  0  0  0  0
    7.1156   -7.5454   16.8218 C   0  0  0  0  0  0  0  0  0  0  0  0
   10.3885   -4.4388   19.2773 C   0  0  0  0  0  0  0  0  0  0  0  0
    4.5160   -9.3822   15.0841 C   0  0  0  0  0  0  0  0  0  0  0  0
  1  3  4  0
  1 24  4  0
  2  6  4  0
  2 15  4  0
  3  5  4  0
  3  6  4  0
  4 21  4  0
  4 29  4  0
  5 15  4  0
  5 28  1  0
  6 16  4  0
  7 18  4  0
  7 26  4  0
  8 18  1  0
  8 19  4  0
  8 22  4  0
  9 12  4  0
  9 19  4  0
 10 12  4  0
 10 22  4  0
 11 20  4  0
 11 21  4  0
 12 23  1  0
 13 20  4  0
 13 29  4  0
 14 17  4  0
 14 28  4  0
 15 25  2  0
 16 27  4  0
 17 18  4  0
 20 27  1  0
 24 27  4  0
 26 28  4  0
M  END
$$$$

 Created by Python create_sdf_string function

 29 33  0  0  0  0  0  0  0  0999 V2000
    8.8270   -7.0288   18.4251 C   0  0  0  0  0  0  0  0  0  0  0  0
    9.1576   -4.6236   15.8860 O   0  0  0  0  0  0  0  0  0  0  0  0
    9.1509   -5.9108   17.7177 C   0  0  0  0  0  0  0  0  0  0  0  0
    3.6373   -9.5349   16.0582 N   0  0  0  0  0  0  0  0  0  0  0  0
    9.9275   -4.8001   18.0438 N   0  0  0  0  0  0  0  0  0  0  0  0
    8.5908   -5.7425   16.4412 C   0  0  0  0  0  0  0  0  0  0  0  0
   10.5993   -4.8981   21.6068 C   0  0  0  0  0  0  0  0  0  0  0  0
   10.4258   -3.0106   23.0998 C   0  0  0  0  0  0  0  0  0  0  0  0
   10.2148   -3.4364   25.4200 C   0  0  0  0  0  0  0  0  0  0  0  0
    9.7853   -1.1840   24.4927 C   0  0  0  0  0  0  0  0  0  0  0  0
    5.0276   -8.5227   17.5352 C   0  0  0  0  0  0  0  0  0  0  0  0
    9.8187   -2.0895   25.5800 C   0  0  0  0  0  0  0  0  0  0  0  0
    5.6473   -8.7216   15.3158 C   0  0  0  0  0  0  0  0  0  0  0  0
   10.7581   -3.1233   19.4720 N   0  0  0  0  0  0  0  0  0  0  0  0
    9.9571   -4.0573   16.8866 C   0  0  0  0  0  0  0  0  0  0  0  0
    7.6213   -6.5618   16.0087 C   0  0  0  0  0  0  0  0  0  0  0  0
   10.8583   -2.6527   20.7222 C   0  0  0  0  0  0  0  0  0  0  0  0
   10.6412   -3.5089   21.7936 C   0  0  0  0  0  0  0  0  0  0  0  0
   10.4972   -3.8968   24.1589 C   0  0  0  0  0  0  0  0  0  0  0  0
    5.9260   -8.2736   16.5517 C   0  0  0  0  0  0  0  0  0  0  0  0
    3.8816   -9.1166   17.2493 C   0  0  0  0  0  0  0  0  0  0  0  0
   10.1297   -1.6575   23.2324 C   0  0  0  0  0  0  0  0  0  0  0  0
    9.4684   -1.6929   26.7263 F   0  0  0  0  0  0  0  0  0  0  0  0
    7.7963   -7.7906   17.9837 C   0  0  0  0  0  0  0  0  0  0  0  0
   10.5884   -3.0725   16.7902 O   0  0  0  0  0  0  0  0  0  0  0  0
   10.4323   -5.3494   20.3516 C   0  0  0  0  0  0  0  0  0  0  0  0
    7.1156   -7.5454   16.8218 C   0  0  0  0  0  0  0  0  0  0  0  0
   10.3885   -4.4388   19.2773 C   0  0  0  0  0  0  0  0  0  0  0  0
    4.5160   -9.3822   15.0841 C   0  0  0  0  0  0  0  0  0  0  0  0
  1  3  4  0
  1 24  4  0
  2  6  4  0
  2 15  4  0
  3  5  4  0
  3  6  4  0
  4 21  4  0
  4 29  4  0
  5 15  4  0
  5 28  1  0
  6 16  4  0
  7 18  4  0
  7 26  4  0
  8 18  1  0
  8 19  4  0
  8 22  4  0
  9 12  4  0
  9 19  4  0
 10 12  4  0
 10 22  4  0
 11 20  4  0
 11 21  4  0
 12 23  1  0
 13 20  4  0
 13 29  4  0
 14 17  4  0
 14 28  4  0
 15 25  2  0
 16 27  4  0
 17 18  4  0
 20 27  1  0
 24 27  4  0
 26 28  4  0
M  END
$$$$

 Created by Python create_sdf_string function

 29 33  0  0  0  0  0  0  0  0999 V2000
    8.8270   -7.0288   18.4251 C   0  0  0  0  0  0  0  0  0  0  0  0
    9.1576   -4.6236   15.8860 O   0  0  0  0  0  0  0  0  0  0  0  0
    9.1509   -5.9108   17.7177 C   0  0  0  0  0  0  0  0  0  0  0  0
    3.6373   -9.5349   16.0582 N   0  0  0  0  0  0  0  0  0  0  0  0
    9.9275   -4.8001   18.0438 N   0  0  0  0  0  0  0  0  0  0  0  0
    8.5908   -5.7425   16.4412 C   0  0  0  0  0  0  0  0  0  0  0  0
   10.5993   -4.8981   21.6068 C   0  0  0  0  0  0  0  0  0  0  0  0
   10.4258   -3.0106   23.0998 C   0  0  0  0  0  0  0  0  0  0  0  0
   10.2148   -3.4364   25.4200 C   0  0  0  0  0  0  0  0  0  0  0  0
    9.7853   -1.1840   24.4927 C   0  0  0  0  0  0  0  0  0  0  0  0
    5.0276   -8.5227   17.5352 C   0  0  0  0  0  0  0  0  0  0  0  0
    9.8187   -2.0895   25.5800 C   0  0  0  0  0  0  0  0  0  0  0  0
    5.6473   -8.7216   15.3158 C   0  0  0  0  0  0  0  0  0  0  0  0
   10.7581   -3.1233   19.4720 N   0  0  0  0  0  0  0  0  0  0  0  0
    9.9571   -4.0573   16.8866 C   0  0  0  0  0  0  0  0  0  0  0  0
    7.6213   -6.5618   16.0087 C   0  0  0  0  0  0  0  0  0  0  0  0
   10.8583   -2.6527   20.7222 C   0  0  0  0  0  0  0  0  0  0  0  0
   10.6412   -3.5089   21.7936 C   0  0  0  0  0  0  0  0  0  0  0  0
   10.4972   -3.8968   24.1589 C   0  0  0  0  0  0  0  0  0  0  0  0
    5.9260   -8.2736   16.5517 C   0  0  0  0  0  0  0  0  0  0  0  0
    3.8816   -9.1166   17.2493 C   0  0  0  0  0  0  0  0  0  0  0  0
   10.1297   -1.6575   23.2324 C   0  0  0  0  0  0  0  0  0  0  0  0
    9.4684   -1.6929   26.7263 F   0  0  0  0  0  0  0  0  0  0  0  0
    7.7963   -7.7906   17.9837 C   0  0  0  0  0  0  0  0  0  0  0  0
   10.5884   -3.0725   16.7902 O   0  0  0  0  0  0  0  0  0  0  0  0
   10.4323   -5.3494   20.3516 C   0  0  0  0  0  0  0  0  0  0  0  0
    7.1156   -7.5454   16.8218 C   0  0  0  0  0  0  0  0  0  0  0  0
   10.3885   -4.4388   19.2773 C   0  0  0  0  0  0  0  0  0  0  0  0
    4.5160   -9.3822   15.0841 C   0  0  0  0  0  0  0  0  0  0  0  0
  1  3  4  0
  1 24  4  0
  2  6  4  0
  2 15  4  0
  3  5  4  0
  3  6  4  0
  4 21  4  0
  4 29  4  0
  5 15  4  0
  5 28  1  0
  6 16  4  0
  7 18  4  0
  7 26  4  0
  8 18  1  0
  8 19  4  0
  8 22  4  0
  9 12  4  0
  9 19  4  0
 10 12  4  0
 10 22  4  0
 11 20  4  0
 11 21  4  0
 12 23  1  0
 13 20  4  0
 13 29  4  0
 14 17  4  0
 14 28  4  0
 15 25  2  0
 16 27  4  0
 17 18  4  0
 20 27  1  0
 24 27  4  0
 26 28  4  0
M  END
$$$$

 Created by Python create_sdf_string function

 29 33  0  0  0  0  0  0  0  0999 V2000
    8.8270   -7.0288   18.4251 C   0  0  0  0  0  0  0  0  0  0  0  0
    9.1576   -4.6236   15.8860 O   0  0  0  0  0  0  0  0  0  0  0  0
    9.1509   -5.9108   17.7177 C   0  0  0  0  0  0  0  0  0  0  0  0
    3.6373   -9.5349   16.0582 N   0  0  0  0  0  0  0  0  0  0  0  0
    9.9275   -4.8001   18.0438 N   0  0  0  0  0  0  0  0  0  0  0  0
    8.5908   -5.7425   16.4412 C   0  0  0  0  0  0  0  0  0  0  0  0
   10.5993   -4.8981   21.6068 C   0  0  0  0  0  0  0  0  0  0  0  0
   10.4258   -3.0106   23.0998 C   0  0  0  0  0  0  0  0  0  0  0  0
   10.2148   -3.4364   25.4200 C   0  0  0  0  0  0  0  0  0  0  0  0
    9.7853   -1.1840   24.4927 C   0  0  0  0  0  0  0  0  0  0  0  0
    5.0276   -8.5227   17.5352 C   0  0  0  0  0  0  0  0  0  0  0  0
    9.8187   -2.0895   25.5800 C   0  0  0  0  0  0  0  0  0  0  0  0
    5.6473   -8.7216   15.3158 C   0  0  0  0  0  0  0  0  0  0  0  0
   10.7581   -3.1233   19.4720 N   0  0  0  0  0  0  0  0  0  0  0  0
    9.9571   -4.0573   16.8866 C   0  0  0  0  0  0  0  0  0  0  0  0
    7.6213   -6.5618   16.0087 C   0  0  0  0  0  0  0  0  0  0  0  0
   10.8583   -2.6527   20.7222 C   0  0  0  0  0  0  0  0  0  0  0  0
   10.6412   -3.5089   21.7936 C   0  0  0  0  0  0  0  0  0  0  0  0
   10.4972   -3.8968   24.1589 C   0  0  0  0  0  0  0  0  0  0  0  0
    5.9260   -8.2736   16.5517 C   0  0  0  0  0  0  0  0  0  0  0  0
    3.8816   -9.1166   17.2493 C   0  0  0  0  0  0  0  0  0  0  0  0
   10.1297   -1.6575   23.2324 C   0  0  0  0  0  0  0  0  0  0  0  0
    9.4684   -1.6929   26.7263 F   0  0  0  0  0  0  0  0  0  0  0  0
    7.7963   -7.7906   17.9837 C   0  0  0  0  0  0  0  0  0  0  0  0
   10.5884   -3.0725   16.7902 O   0  0  0  0  0  0  0  0  0  0  0  0
   10.4323   -5.3494   20.3516 C   0  0  0  0  0  0  0  0  0  0  0  0
    7.1156   -7.5454   16.8218 C   0  0  0  0  0  0  0  0  0  0  0  0
   10.3885   -4.4388   19.2773 C   0  0  0  0  0  0  0  0  0  0  0  0
    4.5160   -9.3822   15.0841 C   0  0  0  0  0  0  0  0  0  0  0  0
  1  3  4  0
  1 24  4  0
  2  6  4  0
  2 15  4  0
  3  5  4  0
  3  6  4  0
  4 21  4  0
  4 29  4  0
  5 15  4  0
  5 28  1  0
  6 16  4  0
  7 18  4  0
  7 26  4  0
  8 18  1  0
  8 19  4  0
  8 22  4  0
  9 12  4  0
  9 19  4  0
 10 12  4  0
 10 22  4  0
 11 20  4  0
 11 21  4  0
 12 23  1  0
 13 20  4  0
 13 29  4  0
 14 17  4  0
 14 28  4  0
 15 25  2  0
 16 27  4  0
 17 18  4  0
 20 27  1  0
 24 27  4  0
 26 28  4  0
M  END
$$$$

 Created by Python create_sdf_string function

 29 33  0  0  0  0  0  0  0  0999 V2000
    8.8270   -7.0288   18.4251 C   0  0  0  0  0  0  0  0  0  0  0  0
    9.1576   -4.6236   15.8860 O   0  0  0  0  0  0  0  0  0  0  0  0
    9.1509   -5.9108   17.7177 C   0  0  0  0  0  0  0  0  0  0  0  0
    3.6373   -9.5349   16.0582 N   0  0  0  0  0  0  0  0  0  0  0  0
    9.9275   -4.8001   18.0438 N   0  0  0  0  0  0  0  0  0  0  0  0
    8.5908   -5.7425   16.4412 C   0  0  0  0  0  0  0  0  0  0  0  0
   10.5993   -4.8981   21.6068 C   0  0  0  0  0  0  0  0  0  0  0  0
   10.4258   -3.0106   23.0998 C   0  0  0  0  0  0  0  0  0  0  0  0
   10.2148   -3.4364   25.4200 C   0  0  0  0  0  0  0  0  0  0  0  0
    9.7853   -1.1840   24.4927 C   0  0  0  0  0  0  0  0  0  0  0  0
    5.0276   -8.5227   17.5352 C   0  0  0  0  0  0  0  0  0  0  0  0
    9.8187   -2.0895   25.5800 C   0  0  0  0  0  0  0  0  0  0  0  0
    5.6473   -8.7216   15.3158 C   0  0  0  0  0  0  0  0  0  0  0  0
   10.7581   -3.1233   19.4720 N   0  0  0  0  0  0  0  0  0  0  0  0
    9.9571   -4.0573   16.8866 C   0  0  0  0  0  0  0  0  0  0  0  0
    7.6213   -6.5618   16.0087 C   0  0  0  0  0  0  0  0  0  0  0  0
   10.8583   -2.6527   20.7222 C   0  0  0  0  0  0  0  0  0  0  0  0
   10.6412   -3.5089   21.7936 C   0  0  0  0  0  0  0  0  0  0  0  0
   10.4972   -3.8968   24.1589 C   0  0  0  0  0  0  0  0  0  0  0  0
    5.9260   -8.2736   16.5517 C   0  0  0  0  0  0  0  0  0  0  0  0
    3.8816   -9.1166   17.2493 C   0  0  0  0  0  0  0  0  0  0  0  0
   10.1297   -1.6575   23.2324 C   0  0  0  0  0  0  0  0  0  0  0  0
    9.4684   -1.6929   26.7263 F   0  0  0  0  0  0  0  0  0  0  0  0
    7.7963   -7.7906   17.9837 C   0  0  0  0  0  0  0  0  0  0  0  0
   10.5884   -3.0725   16.7902 O   0  0  0  0  0  0  0  0  0  0  0  0
   10.4323   -5.3494   20.3516 C   0  0  0  0  0  0  0  0  0  0  0  0
    7.1156   -7.5454   16.8218 C   0  0  0  0  0  0  0  0  0  0  0  0
   10.3885   -4.4388   19.2773 C   0  0  0  0  0  0  0  0  0  0  0  0
    4.5160   -9.3822   15.0841 C   0  0  0  0  0  0  0  0  0  0  0  0
  1  3  4  0
  1 24  4  0
  2  6  4  0
  2 15  4  0
  3  5  4  0
  3  6  4  0
  4 21  4  0
  4 29  4  0
  5 15  4  0
  5 28  1  0
  6 16  4  0
  7 18  4  0
  7 26  4  0
  8 18  1  0
  8 19  4  0
  8 22  4  0
  9 12  4  0
  9 19  4  0
 10 12  4  0
 10 22  4  0
 11 20  4  0
 11 21  4  0
 12 23  1  0
 13 20  4  0
 13 29  4  0
 14 17  4  0
 14 28  4  0
 15 25  2  0
 16 27  4  0
 17 18  4  0
 20 27  1  0
 24 27  4  0
 26 28  4  0
M  END
$$$$

 Created by Python create_sdf_string function

 29 33  0  0  0  0  0  0  0  0999 V2000
    8.8270   -7.0288   18.4251 C   0  0  0  0  0  0  0  0  0  0  0  0
    9.1576   -4.6236   15.8860 O   0  0  0  0  0  0  0  0  0  0  0  0
    9.1509   -5.9108   17.7177 C   0  0  0  0  0  0  0  0  0  0  0  0
    3.6373   -9.5349   16.0582 N   0  0  0  0  0  0  0  0  0  0  0  0
    9.9275   -4.8001   18.0438 N   0  0  0  0  0  0  0  0  0  0  0  0
    8.5908   -5.7425   16.4412 C   0  0  0  0  0  0  0  0  0  0  0  0
   10.5993   -4.8981   21.6068 C   0  0  0  0  0  0  0  0  0  0  0  0
   10.4258   -3.0106   23.0998 C   0  0  0  0  0  0  0  0  0  0  0  0
   10.2148   -3.4364   25.4200 C   0  0  0  0  0  0  0  0  0  0  0  0
    9.7853   -1.1840   24.4927 C   0  0  0  0  0  0  0  0  0  0  0  0
    5.0276   -8.5227   17.5352 C   0  0  0  0  0  0  0  0  0  0  0  0
    9.8187   -2.0895   25.5800 C   0  0  0  0  0  0  0  0  0  0  0  0
    5.6473   -8.7216   15.3158 C   0  0  0  0  0  0  0  0  0  0  0  0
   10.7581   -3.1233   19.4720 N   0  0  0  0  0  0  0  0  0  0  0  0
    9.9571   -4.0573   16.8866 C   0  0  0  0  0  0  0  0  0  0  0  0
    7.6213   -6.5618   16.0087 C   0  0  0  0  0  0  0  0  0  0  0  0
   10.8583   -2.6527   20.7222 C   0  0  0  0  0  0  0  0  0  0  0  0
   10.6412   -3.5089   21.7936 C   0  0  0  0  0  0  0  0  0  0  0  0
   10.4972   -3.8968   24.1589 C   0  0  0  0  0  0  0  0  0  0  0  0
    5.9260   -8.2736   16.5517 C   0  0  0  0  0  0  0  0  0  0  0  0
    3.8816   -9.1166   17.2493 C   0  0  0  0  0  0  0  0  0  0  0  0
   10.1297   -1.6575   23.2324 C   0  0  0  0  0  0  0  0  0  0  0  0
    9.4684   -1.6929   26.7263 F   0  0  0  0  0  0  0  0  0  0  0  0
    7.7963   -7.7906   17.9837 C   0  0  0  0  0  0  0  0  0  0  0  0
   10.5884   -3.0725   16.7902 O   0  0  0  0  0  0  0  0  0  0  0  0
   10.4323   -5.3494   20.3516 C   0  0  0  0  0  0  0  0  0  0  0  0
    7.1156   -7.5454   16.8218 C   0  0  0  0  0  0  0  0  0  0  0  0
   10.3885   -4.4388   19.2773 C   0  0  0  0  0  0  0  0  0  0  0  0
    4.5160   -9.3822   15.0841 C   0  0  0  0  0  0  0  0  0  0  0  0
  1  3  4  0
  1 24  4  0
  2  6  4  0
  2 15  4  0
  3  5  4  0
  3  6  4  0
  4 21  4  0
  4 29  4  0
  5 15  4  0
  5 28  1  0
  6 16  4  0
  7 18  4  0
  7 26  4  0
  8 18  1  0
  8 19  4  0
  8 22  4  0
  9 12  4  0
  9 19  4  0
 10 12  4  0
 10 22  4  0
 11 20  4  0
 11 21  4  0
 12 23  1  0
 13 20  4  0
 13 29  4  0
 14 17  4  0
 14 28  4  0
 15 25  2  0
 16 27  4  0
 17 18  4  0
 20 27  1  0
 24 27  4  0
 26 28  4  0
M  END
$$$$

 Created by Python create_sdf_string function

 29 33  0  0  0  0  0  0  0  0999 V2000
    8.8270   -7.0288   18.4251 C   0  0  0  0  0  0  0  0  0  0  0  0
    9.1576   -4.6236   15.8860 O   0  0  0  0  0  0  0  0  0  0  0  0
    9.1509   -5.9108   17.7177 C   0  0  0  0  0  0  0  0  0  0  0  0
    3.6373   -9.5349   16.0582 N   0  0  0  0  0  0  0  0  0  0  0  0
    9.9275   -4.8001   18.0438 N   0  0  0  0  0  0  0  0  0  0  0  0
    8.5908   -5.7425   16.4412 C   0  0  0  0  0  0  0  0  0  0  0  0
   10.5993   -4.8981   21.6068 C   0  0  0  0  0  0  0  0  0  0  0  0
   10.4258   -3.0106   23.0998 C   0  0  0  0  0  0  0  0  0  0  0  0
   10.2148   -3.4364   25.4200 C   0  0  0  0  0  0  0  0  0  0  0  0
    9.7853   -1.1840   24.4927 C   0  0  0  0  0  0  0  0  0  0  0  0
    5.0276   -8.5227   17.5352 C   0  0  0  0  0  0  0  0  0  0  0  0
    9.8187   -2.0895   25.5800 C   0  0  0  0  0  0  0  0  0  0  0  0
    5.6473   -8.7216   15.3158 C   0  0  0  0  0  0  0  0  0  0  0  0
   10.7581   -3.1233   19.4720 N   0  0  0  0  0  0  0  0  0  0  0  0
    9.9571   -4.0573   16.8866 C   0  0  0  0  0  0  0  0  0  0  0  0
    7.6213   -6.5618   16.0087 C   0  0  0  0  0  0  0  0  0  0  0  0
   10.8583   -2.6527   20.7222 C   0  0  0  0  0  0  0  0  0  0  0  0
   10.6412   -3.5089   21.7936 C   0  0  0  0  0  0  0  0  0  0  0  0
   10.4972   -3.8968   24.1589 C   0  0  0  0  0  0  0  0  0  0  0  0
    5.9260   -8.2736   16.5517 C   0  0  0  0  0  0  0  0  0  0  0  0
    3.8816   -9.1166   17.2493 C   0  0  0  0  0  0  0  0  0  0  0  0
   10.1297   -1.6575   23.2324 C   0  0  0  0  0  0  0  0  0  0  0  0
    9.4684   -1.6929   26.7263 F   0  0  0  0  0  0  0  0  0  0  0  0
    7.7963   -7.7906   17.9837 C   0  0  0  0  0  0  0  0  0  0  0  0
   10.5884   -3.0725   16.7902 O   0  0  0  0  0  0  0  0  0  0  0  0
   10.4323   -5.3494   20.3516 C   0  0  0  0  0  0  0  0  0  0  0  0
    7.1156   -7.5454   16.8218 C   0  0  0  0  0  0  0  0  0  0  0  0
   10.3885   -4.4388   19.2773 C   0  0  0  0  0  0  0  0  0  0  0  0
    4.5160   -9.3822   15.0841 C   0  0  0  0  0  0  0  0  0  0  0  0
  1  3  4  0
  1 24  4  0
  2  6  4  0
  2 15  4  0
  3  5  4  0
  3  6  4  0
  4 21  4  0
  4 29  4  0
  5 15  4  0
  5 28  1  0
  6 16  4  0
  7 18  4  0
  7 26  4  0
  8 18  1  0
  8 19  4  0
  8 22  4  0
  9 12  4  0
  9 19  4  0
 10 12  4  0
 10 22  4  0
 11 20  4  0
 11 21  4  0
 12 23  1  0
 13 20  4  0
 13 29  4  0
 14 17  4  0
 14 28  4  0
 15 25  2  0
 16 27  4  0
 17 18  4  0
 20 27  1  0
 24 27  4  0
 26 28  4  0
M  END
$$$$

 Created by Python create_sdf_string function

 29 33  0  0  0  0  0  0  0  0999 V2000
    8.8270   -7.0288   18.4251 C   0  0  0  0  0  0  0  0  0  0  0  0
    9.1576   -4.6236   15.8860 O   0  0  0  0  0  0  0  0  0  0  0  0
    9.1509   -5.9108   17.7177 C   0  0  0  0  0  0  0  0  0  0  0  0
    3.6373   -9.5349   16.0582 N   0  0  0  0  0  0  0  0  0  0  0  0
    9.9275   -4.8001   18.0438 N   0  0  0  0  0  0  0  0  0  0  0  0
    8.5908   -5.7425   16.4412 C   0  0  0  0  0  0  0  0  0  0  0  0
   10.5993   -4.8981   21.6068 C   0  0  0  0  0  0  0  0  0  0  0  0
   10.4258   -3.0106   23.0998 C   0  0  0  0  0  0  0  0  0  0  0  0
   10.2148   -3.4364   25.4200 C   0  0  0  0  0  0  0  0  0  0  0  0
    9.7853   -1.1840   24.4927 C   0  0  0  0  0  0  0  0  0  0  0  0
    5.0276   -8.5227   17.5352 C   0  0  0  0  0  0  0  0  0  0  0  0
    9.8187   -2.0895   25.5800 C   0  0  0  0  0  0  0  0  0  0  0  0
    5.6473   -8.7216   15.3158 C   0  0  0  0  0  0  0  0  0  0  0  0
   10.7581   -3.1233   19.4720 N   0  0  0  0  0  0  0  0  0  0  0  0
    9.9571   -4.0573   16.8866 C   0  0  0  0  0  0  0  0  0  0  0  0
    7.6213   -6.5618   16.0087 C   0  0  0  0  0  0  0  0  0  0  0  0
   10.8583   -2.6527   20.7222 C   0  0  0  0  0  0  0  0  0  0  0  0
   10.6412   -3.5089   21.7936 C   0  0  0  0  0  0  0  0  0  0  0  0
   10.4972   -3.8968   24.1589 C   0  0  0  0  0  0  0  0  0  0  0  0
    5.9260   -8.2736   16.5517 C   0  0  0  0  0  0  0  0  0  0  0  0
    3.8816   -9.1166   17.2493 C   0  0  0  0  0  0  0  0  0  0  0  0
   10.1297   -1.6575   23.2324 C   0  0  0  0  0  0  0  0  0  0  0  0
    9.4684   -1.6929   26.7263 F   0  0  0  0  0  0  0  0  0  0  0  0
    7.7963   -7.7906   17.9837 C   0  0  0  0  0  0  0  0  0  0  0  0
   10.5884   -3.0725   16.7902 O   0  0  0  0  0  0  0  0  0  0  0  0
   10.4323   -5.3494   20.3516 C   0  0  0  0  0  0  0  0  0  0  0  0
    7.1156   -7.5454   16.8218 C   0  0  0  0  0  0  0  0  0  0  0  0
   10.3885   -4.4388   19.2773 C   0  0  0  0  0  0  0  0  0  0  0  0
    4.5160   -9.3822   15.0841 C   0  0  0  0  0  0  0  0  0  0  0  0
  1  3  4  0
  1 24  4  0
  2  6  4  0
  2 15  4  0
  3  5  4  0
  3  6  4  0
  4 21  4  0
  4 29  4  0
  5 15  4  0
  5 28  1  0
  6 16  4  0
  7 18  4  0
  7 26  4  0
  8 18  1  0
  8 19  4  0
  8 22  4  0
  9 12  4  0
  9 19  4  0
 10 12  4  0
 10 22  4  0
 11 20  4  0
 11 21  4  0
 12 23  1  0
 13 20  4  0
 13 29  4  0
 14 17  4  0
 14 28  4  0
 15 25  2  0
 16 27  4  0
 17 18  4  0
 20 27  1  0
 24 27  4  0
 26 28  4  0
M  END
$$$$

 Created by Python create_sdf_string function

 29 33  0  0  0  0  0  0  0  0999 V2000
    8.8270   -7.0288   18.4251 C   0  0  0  0  0  0  0  0  0  0  0  0
    9.1576   -4.6236   15.8860 O   0  0  0  0  0  0  0  0  0  0  0  0
    9.1509   -5.9108   17.7177 C   0  0  0  0  0  0  0  0  0  0  0  0
    3.6373   -9.5349   16.0582 N   0  0  0  0  0  0  0  0  0  0  0  0
    9.9275   -4.8001   18.0438 N   0  0  0  0  0  0  0  0  0  0  0  0
    8.5908   -5.7425   16.4412 C   0  0  0  0  0  0  0  0  0  0  0  0
   10.5993   -4.8981   21.6068 C   0  0  0  0  0  0  0  0  0  0  0  0
   10.4258   -3.0106   23.0998 C   0  0  0  0  0  0  0  0  0  0  0  0
   10.2148   -3.4364   25.4200 C   0  0  0  0  0  0  0  0  0  0  0  0
    9.7853   -1.1840   24.4927 C   0  0  0  0  0  0  0  0  0  0  0  0
    5.0276   -8.5227   17.5352 C   0  0  0  0  0  0  0  0  0  0  0  0
    9.8187   -2.0895   25.5800 C   0  0  0  0  0  0  0  0  0  0  0  0
    5.6473   -8.7216   15.3158 C   0  0  0  0  0  0  0  0  0  0  0  0
   10.7581   -3.1233   19.4720 N   0  0  0  0  0  0  0  0  0  0  0  0
    9.9571   -4.0573   16.8866 C   0  0  0  0  0  0  0  0  0  0  0  0
    7.6213   -6.5618   16.0087 C   0  0  0  0  0  0  0  0  0  0  0  0
   10.8583   -2.6527   20.7222 C   0  0  0  0  0  0  0  0  0  0  0  0
   10.6412   -3.5089   21.7936 C   0  0  0  0  0  0  0  0  0  0  0  0
   10.4972   -3.8968   24.1589 C   0  0  0  0  0  0  0  0  0  0  0  0
    5.9260   -8.2736   16.5517 C   0  0  0  0  0  0  0  0  0  0  0  0
    3.8816   -9.1166   17.2493 C   0  0  0  0  0  0  0  0  0  0  0  0
   10.1297   -1.6575   23.2324 C   0  0  0  0  0  0  0  0  0  0  0  0
    9.4684   -1.6929   26.7263 F   0  0  0  0  0  0  0  0  0  0  0  0
    7.7963   -7.7906   17.9837 C   0  0  0  0  0  0  0  0  0  0  0  0
   10.5884   -3.0725   16.7902 O   0  0  0  0  0  0  0  0  0  0  0  0
   10.4323   -5.3494   20.3516 C   0  0  0  0  0  0  0  0  0  0  0  0
    7.1156   -7.5454   16.8218 C   0  0  0  0  0  0  0  0  0  0  0  0
   10.3885   -4.4388   19.2773 C   0  0  0  0  0  0  0  0  0  0  0  0
    4.5160   -9.3822   15.0841 C   0  0  0  0  0  0  0  0  0  0  0  0
  1  3  4  0
  1 24  4  0
  2  6  4  0
  2 15  4  0
  3  5  4  0
  3  6  4  0
  4 21  4  0
  4 29  4  0
  5 15  4  0
  5 28  1  0
  6 16  4  0
  7 18  4  0
  7 26  4  0
  8 18  1  0
  8 19  4  0
  8 22  4  0
  9 12  4  0
  9 19  4  0
 10 12  4  0
 10 22  4  0
 11 20  4  0
 11 21  4  0
 12 23  1  0
 13 20  4  0
 13 29  4  0
 14 17  4  0
 14 28  4  0
 15 25  2  0
 16 27  4  0
 17 18  4  0
 20 27  1  0
 24 27  4  0
 26 28  4  0
M  END
$$$$

 Created by Python create_sdf_string function

 29 33  0  0  0  0  0  0  0  0999 V2000
    8.8270   -7.0288   18.4251 C   0  0  0  0  0  0  0  0  0  0  0  0
    9.1576   -4.6236   15.8860 O   0  0  0  0  0  0  0  0  0  0  0  0
    9.1509   -5.9108   17.7177 C   0  0  0  0  0  0  0  0  0  0  0  0
    3.6373   -9.5349   16.0582 N   0  0  0  0  0  0  0  0  0  0  0  0
    9.9275   -4.8001   18.0438 N   0  0  0  0  0  0  0  0  0  0  0  0
    8.5908   -5.7425   16.4412 C   0  0  0  0  0  0  0  0  0  0  0  0
   10.5993   -4.8981   21.6068 C   0  0  0  0  0  0  0  0  0  0  0  0
   10.4258   -3.0106   23.0998 C   0  0  0  0  0  0  0  0  0  0  0  0
   10.2148   -3.4364   25.4200 C   0  0  0  0  0  0  0  0  0  0  0  0
    9.7853   -1.1840   24.4927 C   0  0  0  0  0  0  0  0  0  0  0  0
    5.0276   -8.5227   17.5352 C   0  0  0  0  0  0  0  0  0  0  0  0
    9.8187   -2.0895   25.5800 C   0  0  0  0  0  0  0  0  0  0  0  0
    5.6473   -8.7216   15.3158 C   0  0  0  0  0  0  0  0  0  0  0  0
   10.7581   -3.1233   19.4720 N   0  0  0  0  0  0  0  0  0  0  0  0
    9.9571   -4.0573   16.8866 C   0  0  0  0  0  0  0  0  0  0  0  0
    7.6213   -6.5618   16.0087 C   0  0  0  0  0  0  0  0  0  0  0  0
   10.8583   -2.6527   20.7222 C   0  0  0  0  0  0  0  0  0  0  0  0
   10.6412   -3.5089   21.7936 C   0  0  0  0  0  0  0  0  0  0  0  0
   10.4972   -3.8968   24.1589 C   0  0  0  0  0  0  0  0  0  0  0  0
    5.9260   -8.2736   16.5517 C   0  0  0  0  0  0  0  0  0  0  0  0
    3.8816   -9.1166   17.2493 C   0  0  0  0  0  0  0  0  0  0  0  0
   10.1297   -1.6575   23.2324 C   0  0  0  0  0  0  0  0  0  0  0  0
    9.4684   -1.6929   26.7263 F   0  0  0  0  0  0  0  0  0  0  0  0
    7.7963   -7.7906   17.9837 C   0  0  0  0  0  0  0  0  0  0  0  0
   10.5884   -3.0725   16.7902 O   0  0  0  0  0  0  0  0  0  0  0  0
   10.4323   -5.3494   20.3516 C   0  0  0  0  0  0  0  0  0  0  0  0
    7.1156   -7.5454   16.8218 C   0  0  0  0  0  0  0  0  0  0  0  0
   10.3885   -4.4388   19.2773 C   0  0  0  0  0  0  0  0  0  0  0  0
    4.5160   -9.3822   15.0841 C   0  0  0  0  0  0  0  0  0  0  0  0
  1  3  4  0
  1 24  4  0
  2  6  4  0
  2 15  4  0
  3  5  4  0
  3  6  4  0
  4 21  4  0
  4 29  4  0
  5 15  4  0
  5 28  1  0
  6 16  4  0
  7 18  4  0
  7 26  4  0
  8 18  1  0
  8 19  4  0
  8 22  4  0
  9 12  4  0
  9 19  4  0
 10 12  4  0
 10 22  4  0
 11 20  4  0
 11 21  4  0
 12 23  1  0
 13 20  4  0
 13 29  4  0
 14 17  4  0
 14 28  4  0
 15 25  2  0
 16 27  4  0
 17 18  4  0
 20 27  1  0
 24 27  4  0
 26 28  4  0
M  END
$$$$

 Created by Python create_sdf_string function

 29 33  0  0  0  0  0  0  0  0999 V2000
    8.8270   -7.0288   18.4251 C   0  0  0  0  0  0  0  0  0  0  0  0
    9.1576   -4.6236   15.8860 O   0  0  0  0  0  0  0  0  0  0  0  0
    9.1509   -5.9108   17.7177 C   0  0  0  0  0  0  0  0  0  0  0  0
    3.6373   -9.5349   16.0582 N   0  0  0  0  0  0  0  0  0  0  0  0
    9.9275   -4.8001   18.0438 N   0  0  0  0  0  0  0  0  0  0  0  0
    8.5908   -5.7425   16.4412 C   0  0  0  0  0  0  0  0  0  0  0  0
   10.5993   -4.8981   21.6068 C   0  0  0  0  0  0  0  0  0  0  0  0
   10.4258   -3.0106   23.0998 C   0  0  0  0  0  0  0  0  0  0  0  0
   10.2148   -3.4364   25.4200 C   0  0  0  0  0  0  0  0  0  0  0  0
    9.7853   -1.1840   24.4927 C   0  0  0  0  0  0  0  0  0  0  0  0
    5.0276   -8.5227   17.5352 C   0  0  0  0  0  0  0  0  0  0  0  0
    9.8187   -2.0895   25.5800 C   0  0  0  0  0  0  0  0  0  0  0  0
    5.6473   -8.7216   15.3158 C   0  0  0  0  0  0  0  0  0  0  0  0
   10.7581   -3.1233   19.4720 N   0  0  0  0  0  0  0  0  0  0  0  0
    9.9571   -4.0573   16.8866 C   0  0  0  0  0  0  0  0  0  0  0  0
    7.6213   -6.5618   16.0087 C   0  0  0  0  0  0  0  0  0  0  0  0
   10.8583   -2.6527   20.7222 C   0  0  0  0  0  0  0  0  0  0  0  0
   10.6412   -3.5089   21.7936 C   0  0  0  0  0  0  0  0  0  0  0  0
   10.4972   -3.8968   24.1589 C   0  0  0  0  0  0  0  0  0  0  0  0
    5.9260   -8.2736   16.5517 C   0  0  0  0  0  0  0  0  0  0  0  0
    3.8816   -9.1166   17.2493 C   0  0  0  0  0  0  0  0  0  0  0  0
   10.1297   -1.6575   23.2324 C   0  0  0  0  0  0  0  0  0  0  0  0
    9.4684   -1.6929   26.7263 F   0  0  0  0  0  0  0  0  0  0  0  0
    7.7963   -7.7906   17.9837 C   0  0  0  0  0  0  0  0  0  0  0  0
   10.5884   -3.0725   16.7902 O   0  0  0  0  0  0  0  0  0  0  0  0
   10.4323   -5.3494   20.3516 C   0  0  0  0  0  0  0  0  0  0  0  0
    7.1156   -7.5454   16.8218 C   0  0  0  0  0  0  0  0  0  0  0  0
   10.3885   -4.4388   19.2773 C   0  0  0  0  0  0  0  0  0  0  0  0
    4.5160   -9.3822   15.0841 C   0  0  0  0  0  0  0  0  0  0  0  0
  1  3  4  0
  1 24  4  0
  2  6  4  0
  2 15  4  0
  3  5  4  0
  3  6  4  0
  4 21  4  0
  4 29  4  0
  5 15  4  0
  5 28  1  0
  6 16  4  0
  7 18  4  0
  7 26  4  0
  8 18  1  0
  8 19  4  0
  8 22  4  0
  9 12  4  0
  9 19  4  0
 10 12  4  0
 10 22  4  0
 11 20  4  0
 11 21  4  0
 12 23  1  0
 13 20  4  0
 13 29  4  0
 14 17  4  0
 14 28  4  0
 15 25  2  0
 16 27  4  0
 17 18  4  0
 20 27  1  0
 24 27  4  0
 26 28  4  0
M  END
$$$$

 Created by Python create_sdf_string function

 29 33  0  0  0  0  0  0  0  0999 V2000
    8.8270   -7.0288   18.4251 C   0  0  0  0  0  0  0  0  0  0  0  0
    9.1576   -4.6236   15.8860 O   0  0  0  0  0  0  0  0  0  0  0  0
    9.1509   -5.9108   17.7177 C   0  0  0  0  0  0  0  0  0  0  0  0
    3.6373   -9.5349   16.0582 N   0  0  0  0  0  0  0  0  0  0  0  0
    9.9275   -4.8001   18.0438 N   0  0  0  0  0  0  0  0  0  0  0  0
    8.5908   -5.7425   16.4412 C   0  0  0  0  0  0  0  0  0  0  0  0
   10.5993   -4.8981   21.6068 C   0  0  0  0  0  0  0  0  0  0  0  0
   10.4258   -3.0106   23.0998 C   0  0  0  0  0  0  0  0  0  0  0  0
   10.2148   -3.4364   25.4200 C   0  0  0  0  0  0  0  0  0  0  0  0
    9.7853   -1.1840   24.4927 C   0  0  0  0  0  0  0  0  0  0  0  0
    5.0276   -8.5227   17.5352 C   0  0  0  0  0  0  0  0  0  0  0  0
    9.8187   -2.0895   25.5800 C   0  0  0  0  0  0  0  0  0  0  0  0
    5.6473   -8.7216   15.3158 C   0  0  0  0  0  0  0  0  0  0  0  0
   10.7581   -3.1233   19.4720 N   0  0  0  0  0  0  0  0  0  0  0  0
    9.9571   -4.0573   16.8866 C   0  0  0  0  0  0  0  0  0  0  0  0
    7.6213   -6.5618   16.0087 C   0  0  0  0  0  0  0  0  0  0  0  0
   10.8583   -2.6527   20.7222 C   0  0  0  0  0  0  0  0  0  0  0  0
   10.6412   -3.5089   21.7936 C   0  0  0  0  0  0  0  0  0  0  0  0
   10.4972   -3.8968   24.1589 C   0  0  0  0  0  0  0  0  0  0  0  0
    5.9260   -8.2736   16.5517 C   0  0  0  0  0  0  0  0  0  0  0  0
    3.8816   -9.1166   17.2493 C   0  0  0  0  0  0  0  0  0  0  0  0
   10.1297   -1.6575   23.2324 C   0  0  0  0  0  0  0  0  0  0  0  0
    9.4684   -1.6929   26.7263 F   0  0  0  0  0  0  0  0  0  0  0  0
    7.7963   -7.7906   17.9837 C   0  0  0  0  0  0  0  0  0  0  0  0
   10.5884   -3.0725   16.7902 O   0  0  0  0  0  0  0  0  0  0  0  0
   10.4323   -5.3494   20.3516 C   0  0  0  0  0  0  0  0  0  0  0  0
    7.1156   -7.5454   16.8218 C   0  0  0  0  0  0  0  0  0  0  0  0
   10.3885   -4.4388   19.2773 C   0  0  0  0  0  0  0  0  0  0  0  0
    4.5160   -9.3822   15.0841 C   0  0  0  0  0  0  0  0  0  0  0  0
  1  3  4  0
  1 24  4  0
  2  6  4  0
  2 15  4  0
  3  5  4  0
  3  6  4  0
  4 21  4  0
  4 29  4  0
  5 15  4  0
  5 28  1  0
  6 16  4  0
  7 18  4  0
  7 26  4  0
  8 18  1  0
  8 19  4  0
  8 22  4  0
  9 12  4  0
  9 19  4  0
 10 12  4  0
 10 22  4  0
 11 20  4  0
 11 21  4  0
 12 23  1  0
 13 20  4  0
 13 29  4  0
 14 17  4  0
 14 28  4  0
 15 25  2  0
 16 27  4  0
 17 18  4  0
 20 27  1  0
 24 27  4  0
 26 28  4  0
M  END
$$$$

 Created by Python create_sdf_string function

 29 33  0  0  0  0  0  0  0  0999 V2000
    8.8270   -7.0288   18.4251 C   0  0  0  0  0  0  0  0  0  0  0  0
    9.1576   -4.6236   15.8860 O   0  0  0  0  0  0  0  0  0  0  0  0
    9.1509   -5.9108   17.7177 C   0  0  0  0  0  0  0  0  0  0  0  0
    3.6373   -9.5349   16.0582 N   0  0  0  0  0  0  0  0  0  0  0  0
    9.9275   -4.8001   18.0438 N   0  0  0  0  0  0  0  0  0  0  0  0
    8.5908   -5.7425   16.4412 C   0  0  0  0  0  0  0  0  0  0  0  0
   10.5993   -4.8981   21.6068 C   0  0  0  0  0  0  0  0  0  0  0  0
   10.4258   -3.0106   23.0998 C   0  0  0  0  0  0  0  0  0  0  0  0
   10.2148   -3.4364   25.4200 C   0  0  0  0  0  0  0  0  0  0  0  0
    9.7853   -1.1840   24.4927 C   0  0  0  0  0  0  0  0  0  0  0  0
    5.0276   -8.5227   17.5352 C   0  0  0  0  0  0  0  0  0  0  0  0
    9.8187   -2.0895   25.5800 C   0  0  0  0  0  0  0  0  0  0  0  0
    5.6473   -8.7216   15.3158 C   0  0  0  0  0  0  0  0  0  0  0  0
   10.7581   -3.1233   19.4720 N   0  0  0  0  0  0  0  0  0  0  0  0
    9.9571   -4.0573   16.8866 C   0  0  0  0  0  0  0  0  0  0  0  0
    7.6213   -6.5618   16.0087 C   0  0  0  0  0  0  0  0  0  0  0  0
   10.8583   -2.6527   20.7222 C   0  0  0  0  0  0  0  0  0  0  0  0
   10.6412   -3.5089   21.7936 C   0  0  0  0  0  0  0  0  0  0  0  0
   10.4972   -3.8968   24.1589 C   0  0  0  0  0  0  0  0  0  0  0  0
    5.9260   -8.2736   16.5517 C   0  0  0  0  0  0  0  0  0  0  0  0
    3.8816   -9.1166   17.2493 C   0  0  0  0  0  0  0  0  0  0  0  0
   10.1297   -1.6575   23.2324 C   0  0  0  0  0  0  0  0  0  0  0  0
    9.4684   -1.6929   26.7263 F   0  0  0  0  0  0  0  0  0  0  0  0
    7.7963   -7.7906   17.9837 C   0  0  0  0  0  0  0  0  0  0  0  0
   10.5884   -3.0725   16.7902 O   0  0  0  0  0  0  0  0  0  0  0  0
   10.4323   -5.3494   20.3516 C   0  0  0  0  0  0  0  0  0  0  0  0
    7.1156   -7.5454   16.8218 C   0  0  0  0  0  0  0  0  0  0  0  0
   10.3885   -4.4388   19.2773 C   0  0  0  0  0  0  0  0  0  0  0  0
    4.5160   -9.3822   15.0841 C   0  0  0  0  0  0  0  0  0  0  0  0
  1  3  4  0
  1 24  4  0
  2  6  4  0
  2 15  4  0
  3  5  4  0
  3  6  4  0
  4 21  4  0
  4 29  4  0
  5 15  4  0
  5 28  1  0
  6 16  4  0
  7 18  4  0
  7 26  4  0
  8 18  1  0
  8 19  4  0
  8 22  4  0
  9 12  4  0
  9 19  4  0
 10 12  4  0
 10 22  4  0
 11 20  4  0
 11 21  4  0
 12 23  1  0
 13 20  4  0
 13 29  4  0
 14 17  4  0
 14 28  4  0
 15 25  2  0
 16 27  4  0
 17 18  4  0
 20 27  1  0
 24 27  4  0
 26 28  4  0
M  END
$$$$

 Created by Python create_sdf_string function

 29 33  0  0  0  0  0  0  0  0999 V2000
    8.8270   -7.0288   18.4251 C   0  0  0  0  0  0  0  0  0  0  0  0
    9.1576   -4.6236   15.8860 O   0  0  0  0  0  0  0  0  0  0  0  0
    9.1509   -5.9108   17.7177 C   0  0  0  0  0  0  0  0  0  0  0  0
    3.6373   -9.5349   16.0582 N   0  0  0  0  0  0  0  0  0  0  0  0
    9.9275   -4.8001   18.0438 N   0  0  0  0  0  0  0  0  0  0  0  0
    8.5908   -5.7425   16.4412 C   0  0  0  0  0  0  0  0  0  0  0  0
   10.5993   -4.8981   21.6068 C   0  0  0  0  0  0  0  0  0  0  0  0
   10.4258   -3.0106   23.0998 C   0  0  0  0  0  0  0  0  0  0  0  0
   10.2148   -3.4364   25.4200 C   0  0  0  0  0  0  0  0  0  0  0  0
    9.7853   -1.1840   24.4927 C   0  0  0  0  0  0  0  0  0  0  0  0
    5.0276   -8.5227   17.5352 C   0  0  0  0  0  0  0  0  0  0  0  0
    9.8187   -2.0895   25.5800 C   0  0  0  0  0  0  0  0  0  0  0  0
    5.6473   -8.7216   15.3158 C   0  0  0  0  0  0  0  0  0  0  0  0
   10.7581   -3.1233   19.4720 N   0  0  0  0  0  0  0  0  0  0  0  0
    9.9571   -4.0573   16.8866 C   0  0  0  0  0  0  0  0  0  0  0  0
    7.6213   -6.5618   16.0087 C   0  0  0  0  0  0  0  0  0  0  0  0
   10.8583   -2.6527   20.7222 C   0  0  0  0  0  0  0  0  0  0  0  0
   10.6412   -3.5089   21.7936 C   0  0  0  0  0  0  0  0  0  0  0  0
   10.4972   -3.8968   24.1589 C   0  0  0  0  0  0  0  0  0  0  0  0
    5.9260   -8.2736   16.5517 C   0  0  0  0  0  0  0  0  0  0  0  0
    3.8816   -9.1166   17.2493 C   0  0  0  0  0  0  0  0  0  0  0  0
   10.1297   -1.6575   23.2324 C   0  0  0  0  0  0  0  0  0  0  0  0
    9.4684   -1.6929   26.7263 F   0  0  0  0  0  0  0  0  0  0  0  0
    7.7963   -7.7906   17.9837 C   0  0  0  0  0  0  0  0  0  0  0  0
   10.5884   -3.0725   16.7902 O   0  0  0  0  0  0  0  0  0  0  0  0
   10.4323   -5.3494   20.3516 C   0  0  0  0  0  0  0  0  0  0  0  0
    7.1156   -7.5454   16.8218 C   0  0  0  0  0  0  0  0  0  0  0  0
   10.3885   -4.4388   19.2773 C   0  0  0  0  0  0  0  0  0  0  0  0
    4.5160   -9.3822   15.0841 C   0  0  0  0  0  0  0  0  0  0  0  0
  1  3  4  0
  1 24  4  0
  2  6  4  0
  2 15  4  0
  3  5  4  0
  3  6  4  0
  4 21  4  0
  4 29  4  0
  5 15  4  0
  5 28  1  0
  6 16  4  0
  7 18  4  0
  7 26  4  0
  8 18  1  0
  8 19  4  0
  8 22  4  0
  9 12  4  0
  9 19  4  0
 10 12  4  0
 10 22  4  0
 11 20  4  0
 11 21  4  0
 12 23  1  0
 13 20  4  0
 13 29  4  0
 14 17  4  0
 14 28  4  0
 15 25  2  0
 16 27  4  0
 17 18  4  0
 20 27  1  0
 24 27  4  0
 26 28  4  0
M  END
$$$$

 Created by Python create_sdf_string function

 29 33  0  0  0  0  0  0  0  0999 V2000
    8.8270   -7.0288   18.4251 C   0  0  0  0  0  0  0  0  0  0  0  0
    9.1576   -4.6236   15.8860 O   0  0  0  0  0  0  0  0  0  0  0  0
    9.1509   -5.9108   17.7177 C   0  0  0  0  0  0  0  0  0  0  0  0
    3.6373   -9.5349   16.0582 N   0  0  0  0  0  0  0  0  0  0  0  0
    9.9275   -4.8001   18.0438 N   0  0  0  0  0  0  0  0  0  0  0  0
    8.5908   -5.7425   16.4412 C   0  0  0  0  0  0  0  0  0  0  0  0
   10.5993   -4.8981   21.6068 C   0  0  0  0  0  0  0  0  0  0  0  0
   10.4258   -3.0106   23.0998 C   0  0  0  0  0  0  0  0  0  0  0  0
   10.2148   -3.4364   25.4200 C   0  0  0  0  0  0  0  0  0  0  0  0
    9.7853   -1.1840   24.4927 C   0  0  0  0  0  0  0  0  0  0  0  0
    5.0276   -8.5227   17.5352 C   0  0  0  0  0  0  0  0  0  0  0  0
    9.8187   -2.0895   25.5800 C   0  0  0  0  0  0  0  0  0  0  0  0
    5.6473   -8.7216   15.3158 C   0  0  0  0  0  0  0  0  0  0  0  0
   10.7581   -3.1233   19.4720 N   0  0  0  0  0  0  0  0  0  0  0  0
    9.9571   -4.0573   16.8866 C   0  0  0  0  0  0  0  0  0  0  0  0
    7.6213   -6.5618   16.0087 C   0  0  0  0  0  0  0  0  0  0  0  0
   10.8583   -2.6527   20.7222 C   0  0  0  0  0  0  0  0  0  0  0  0
   10.6412   -3.5089   21.7936 C   0  0  0  0  0  0  0  0  0  0  0  0
   10.4972   -3.8968   24.1589 C   0  0  0  0  0  0  0  0  0  0  0  0
    5.9260   -8.2736   16.5517 C   0  0  0  0  0  0  0  0  0  0  0  0
    3.8816   -9.1166   17.2493 C   0  0  0  0  0  0  0  0  0  0  0  0
   10.1297   -1.6575   23.2324 C   0  0  0  0  0  0  0  0  0  0  0  0
    9.4684   -1.6929   26.7263 F   0  0  0  0  0  0  0  0  0  0  0  0
    7.7963   -7.7906   17.9837 C   0  0  0  0  0  0  0  0  0  0  0  0
   10.5884   -3.0725   16.7902 O   0  0  0  0  0  0  0  0  0  0  0  0
   10.4323   -5.3494   20.3516 C   0  0  0  0  0  0  0  0  0  0  0  0
    7.1156   -7.5454   16.8218 C   0  0  0  0  0  0  0  0  0  0  0  0
   10.3885   -4.4388   19.2773 C   0  0  0  0  0  0  0  0  0  0  0  0
    4.5160   -9.3822   15.0841 C   0  0  0  0  0  0  0  0  0  0  0  0
  1  3  4  0
  1 24  4  0
  2  6  4  0
  2 15  4  0
  3  5  4  0
  3  6  4  0
  4 21  4  0
  4 29  4  0
  5 15  4  0
  5 28  1  0
  6 16  4  0
  7 18  4  0
  7 26  4  0
  8 18  1  0
  8 19  4  0
  8 22  4  0
  9 12  4  0
  9 19  4  0
 10 12  4  0
 10 22  4  0
 11 20  4  0
 11 21  4  0
 12 23  1  0
 13 20  4  0
 13 29  4  0
 14 17  4  0
 14 28  4  0
 15 25  2  0
 16 27  4  0
 17 18  4  0
 20 27  1  0
 24 27  4  0
 26 28  4  0
M  END
$$$$

 Created by Python create_sdf_string function

 29 33  0  0  0  0  0  0  0  0999 V2000
    8.8270   -7.0288   18.4251 C   0  0  0  0  0  0  0  0  0  0  0  0
    9.1576   -4.6236   15.8860 O   0  0  0  0  0  0  0  0  0  0  0  0
    9.1509   -5.9108   17.7177 C   0  0  0  0  0  0  0  0  0  0  0  0
    3.6373   -9.5349   16.0582 N   0  0  0  0  0  0  0  0  0  0  0  0
    9.9275   -4.8001   18.0438 N   0  0  0  0  0  0  0  0  0  0  0  0
    8.5908   -5.7425   16.4412 C   0  0  0  0  0  0  0  0  0  0  0  0
   10.5993   -4.8981   21.6068 C   0  0  0  0  0  0  0  0  0  0  0  0
   10.4258   -3.0106   23.0998 C   0  0  0  0  0  0  0  0  0  0  0  0
   10.2148   -3.4364   25.4200 C   0  0  0  0  0  0  0  0  0  0  0  0
    9.7853   -1.1840   24.4927 C   0  0  0  0  0  0  0  0  0  0  0  0
    5.0276   -8.5227   17.5352 C   0  0  0  0  0  0  0  0  0  0  0  0
    9.8187   -2.0895   25.5800 C   0  0  0  0  0  0  0  0  0  0  0  0
    5.6473   -8.7216   15.3158 C   0  0  0  0  0  0  0  0  0  0  0  0
   10.7581   -3.1233   19.4720 N   0  0  0  0  0  0  0  0  0  0  0  0
    9.9571   -4.0573   16.8866 C   0  0  0  0  0  0  0  0  0  0  0  0
    7.6213   -6.5618   16.0087 C   0  0  0  0  0  0  0  0  0  0  0  0
   10.8583   -2.6527   20.7222 C   0  0  0  0  0  0  0  0  0  0  0  0
   10.6412   -3.5089   21.7936 C   0  0  0  0  0  0  0  0  0  0  0  0
   10.4972   -3.8968   24.1589 C   0  0  0  0  0  0  0  0  0  0  0  0
    5.9260   -8.2736   16.5517 C   0  0  0  0  0  0  0  0  0  0  0  0
    3.8816   -9.1166   17.2493 C   0  0  0  0  0  0  0  0  0  0  0  0
   10.1297   -1.6575   23.2324 C   0  0  0  0  0  0  0  0  0  0  0  0
    9.4684   -1.6929   26.7263 F   0  0  0  0  0  0  0  0  0  0  0  0
    7.7963   -7.7906   17.9837 C   0  0  0  0  0  0  0  0  0  0  0  0
   10.5884   -3.0725   16.7902 O   0  0  0  0  0  0  0  0  0  0  0  0
   10.4323   -5.3494   20.3516 C   0  0  0  0  0  0  0  0  0  0  0  0
    7.1156   -7.5454   16.8218 C   0  0  0  0  0  0  0  0  0  0  0  0
   10.3885   -4.4388   19.2773 C   0  0  0  0  0  0  0  0  0  0  0  0
    4.5160   -9.3822   15.0841 C   0  0  0  0  0  0  0  0  0  0  0  0
  1  3  4  0
  1 24  4  0
  2  6  4  0
  2 15  4  0
  3  5  4  0
  3  6  4  0
  4 21  4  0
  4 29  4  0
  5 15  4  0
  5 28  1  0
  6 16  4  0
  7 18  4  0
  7 26  4  0
  8 18  1  0
  8 19  4  0
  8 22  4  0
  9 12  4  0
  9 19  4  0
 10 12  4  0
 10 22  4  0
 11 20  4  0
 11 21  4  0
 12 23  1  0
 13 20  4  0
 13 29  4  0
 14 17  4  0
 14 28  4  0
 15 25  2  0
 16 27  4  0
 17 18  4  0
 20 27  1  0
 24 27  4  0
 26 28  4  0
M  END
$$$$

 Created by Python create_sdf_string function

 29 33  0  0  0  0  0  0  0  0999 V2000
    8.8270   -7.0288   18.4251 C   0  0  0  0  0  0  0  0  0  0  0  0
    9.1576   -4.6236   15.8860 O   0  0  0  0  0  0  0  0  0  0  0  0
    9.1509   -5.9108   17.7177 C   0  0  0  0  0  0  0  0  0  0  0  0
    3.6373   -9.5349   16.0582 N   0  0  0  0  0  0  0  0  0  0  0  0
    9.9275   -4.8001   18.0438 N   0  0  0  0  0  0  0  0  0  0  0  0
    8.5908   -5.7425   16.4412 C   0  0  0  0  0  0  0  0  0  0  0  0
   10.5993   -4.8981   21.6068 C   0  0  0  0  0  0  0  0  0  0  0  0
   10.4258   -3.0106   23.0998 C   0  0  0  0  0  0  0  0  0  0  0  0
   10.2148   -3.4364   25.4200 C   0  0  0  0  0  0  0  0  0  0  0  0
    9.7853   -1.1840   24.4927 C   0  0  0  0  0  0  0  0  0  0  0  0
    5.0276   -8.5227   17.5352 C   0  0  0  0  0  0  0  0  0  0  0  0
    9.8187   -2.0895   25.5800 C   0  0  0  0  0  0  0  0  0  0  0  0
    5.6473   -8.7216   15.3158 C   0  0  0  0  0  0  0  0  0  0  0  0
   10.7581   -3.1233   19.4720 N   0  0  0  0  0  0  0  0  0  0  0  0
    9.9571   -4.0573   16.8866 C   0  0  0  0  0  0  0  0  0  0  0  0
    7.6213   -6.5618   16.0087 C   0  0  0  0  0  0  0  0  0  0  0  0
   10.8583   -2.6527   20.7222 C   0  0  0  0  0  0  0  0  0  0  0  0
   10.6412   -3.5089   21.7936 C   0  0  0  0  0  0  0  0  0  0  0  0
   10.4972   -3.8968   24.1589 C   0  0  0  0  0  0  0  0  0  0  0  0
    5.9260   -8.2736   16.5517 C   0  0  0  0  0  0  0  0  0  0  0  0
    3.8816   -9.1166   17.2493 C   0  0  0  0  0  0  0  0  0  0  0  0
   10.1297   -1.6575   23.2324 C   0  0  0  0  0  0  0  0  0  0  0  0
    9.4684   -1.6929   26.7263 F   0  0  0  0  0  0  0  0  0  0  0  0
    7.7963   -7.7906   17.9837 C   0  0  0  0  0  0  0  0  0  0  0  0
   10.5884   -3.0725   16.7902 O   0  0  0  0  0  0  0  0  0  0  0  0
   10.4323   -5.3494   20.3516 C   0  0  0  0  0  0  0  0  0  0  0  0
    7.1156   -7.5454   16.8218 C   0  0  0  0  0  0  0  0  0  0  0  0
   10.3885   -4.4388   19.2773 C   0  0  0  0  0  0  0  0  0  0  0  0
    4.5160   -9.3822   15.0841 C   0  0  0  0  0  0  0  0  0  0  0  0
  1  3  4  0
  1 24  4  0
  2  6  4  0
  2 15  4  0
  3  5  4  0
  3  6  4  0
  4 21  4  0
  4 29  4  0
  5 15  4  0
  5 28  1  0
  6 16  4  0
  7 18  4  0
  7 26  4  0
  8 18  1  0
  8 19  4  0
  8 22  4  0
  9 12  4  0
  9 19  4  0
 10 12  4  0
 10 22  4  0
 11 20  4  0
 11 21  4  0
 12 23  1  0
 13 20  4  0
 13 29  4  0
 14 17  4  0
 14 28  4  0
 15 25  2  0
 16 27  4  0
 17 18  4  0
 20 27  1  0
 24 27  4  0
 26 28  4  0
M  END
$$$$

 Created by Python create_sdf_string function

 29 33  0  0  0  0  0  0  0  0999 V2000
    8.8270   -7.0288   18.4251 C   0  0  0  0  0  0  0  0  0  0  0  0
    9.1576   -4.6236   15.8860 O   0  0  0  0  0  0  0  0  0  0  0  0
    9.1509   -5.9108   17.7177 C   0  0  0  0  0  0  0  0  0  0  0  0
    3.6373   -9.5349   16.0582 N   0  0  0  0  0  0  0  0  0  0  0  0
    9.9275   -4.8001   18.0438 N   0  0  0  0  0  0  0  0  0  0  0  0
    8.5908   -5.7425   16.4412 C   0  0  0  0  0  0  0  0  0  0  0  0
   10.5993   -4.8981   21.6068 C   0  0  0  0  0  0  0  0  0  0  0  0
   10.4258   -3.0106   23.0998 C   0  0  0  0  0  0  0  0  0  0  0  0
   10.2148   -3.4364   25.4200 C   0  0  0  0  0  0  0  0  0  0  0  0
    9.7853   -1.1840   24.4927 C   0  0  0  0  0  0  0  0  0  0  0  0
    5.0276   -8.5227   17.5352 C   0  0  0  0  0  0  0  0  0  0  0  0
    9.8187   -2.0895   25.5800 C   0  0  0  0  0  0  0  0  0  0  0  0
    5.6473   -8.7216   15.3158 C   0  0  0  0  0  0  0  0  0  0  0  0
   10.7581   -3.1233   19.4720 N   0  0  0  0  0  0  0  0  0  0  0  0
    9.9571   -4.0573   16.8866 C   0  0  0  0  0  0  0  0  0  0  0  0
    7.6213   -6.5618   16.0087 C   0  0  0  0  0  0  0  0  0  0  0  0
   10.8583   -2.6527   20.7222 C   0  0  0  0  0  0  0  0  0  0  0  0
   10.6412   -3.5089   21.7936 C   0  0  0  0  0  0  0  0  0  0  0  0
   10.4972   -3.8968   24.1589 C   0  0  0  0  0  0  0  0  0  0  0  0
    5.9260   -8.2736   16.5517 C   0  0  0  0  0  0  0  0  0  0  0  0
    3.8816   -9.1166   17.2493 C   0  0  0  0  0  0  0  0  0  0  0  0
   10.1297   -1.6575   23.2324 C   0  0  0  0  0  0  0  0  0  0  0  0
    9.4684   -1.6929   26.7263 F   0  0  0  0  0  0  0  0  0  0  0  0
    7.7963   -7.7906   17.9837 C   0  0  0  0  0  0  0  0  0  0  0  0
   10.5884   -3.0725   16.7902 O   0  0  0  0  0  0  0  0  0  0  0  0
   10.4323   -5.3494   20.3516 C   0  0  0  0  0  0  0  0  0  0  0  0
    7.1156   -7.5454   16.8218 C   0  0  0  0  0  0  0  0  0  0  0  0
   10.3885   -4.4388   19.2773 C   0  0  0  0  0  0  0  0  0  0  0  0
    4.5160   -9.3822   15.0841 C   0  0  0  0  0  0  0  0  0  0  0  0
  1  3  4  0
  1 24  4  0
  2  6  4  0
  2 15  4  0
  3  5  4  0
  3  6  4  0
  4 21  4  0
  4 29  4  0
  5 15  4  0
  5 28  1  0
  6 16  4  0
  7 18  4  0
  7 26  4  0
  8 18  1  0
  8 19  4  0
  8 22  4  0
  9 12  4  0
  9 19  4  0
 10 12  4  0
 10 22  4  0
 11 20  4  0
 11 21  4  0
 12 23  1  0
 13 20  4  0
 13 29  4  0
 14 17  4  0
 14 28  4  0
 15 25  2  0
 16 27  4  0
 17 18  4  0
 20 27  1  0
 24 27  4  0
 26 28  4  0
M  END
$$$$

 Created by Python create_sdf_string function

 29 33  0  0  0  0  0  0  0  0999 V2000
    8.8270   -7.0288   18.4251 C   0  0  0  0  0  0  0  0  0  0  0  0
    9.1576   -4.6236   15.8860 O   0  0  0  0  0  0  0  0  0  0  0  0
    9.1509   -5.9108   17.7177 C   0  0  0  0  0  0  0  0  0  0  0  0
    3.6373   -9.5349   16.0582 N   0  0  0  0  0  0  0  0  0  0  0  0
    9.9275   -4.8001   18.0438 N   0  0  0  0  0  0  0  0  0  0  0  0
    8.5908   -5.7425   16.4412 C   0  0  0  0  0  0  0  0  0  0  0  0
   10.5993   -4.8981   21.6068 C   0  0  0  0  0  0  0  0  0  0  0  0
   10.4258   -3.0106   23.0998 C   0  0  0  0  0  0  0  0  0  0  0  0
   10.2148   -3.4364   25.4200 C   0  0  0  0  0  0  0  0  0  0  0  0
    9.7853   -1.1840   24.4927 C   0  0  0  0  0  0  0  0  0  0  0  0
    5.0276   -8.5227   17.5352 C   0  0  0  0  0  0  0  0  0  0  0  0
    9.8187   -2.0895   25.5800 C   0  0  0  0  0  0  0  0  0  0  0  0
    5.6473   -8.7216   15.3158 C   0  0  0  0  0  0  0  0  0  0  0  0
   10.7581   -3.1233   19.4720 N   0  0  0  0  0  0  0  0  0  0  0  0
    9.9571   -4.0573   16.8866 C   0  0  0  0  0  0  0  0  0  0  0  0
    7.6213   -6.5618   16.0087 C   0  0  0  0  0  0  0  0  0  0  0  0
   10.8583   -2.6527   20.7222 C   0  0  0  0  0  0  0  0  0  0  0  0
   10.6412   -3.5089   21.7936 C   0  0  0  0  0  0  0  0  0  0  0  0
   10.4972   -3.8968   24.1589 C   0  0  0  0  0  0  0  0  0  0  0  0
    5.9260   -8.2736   16.5517 C   0  0  0  0  0  0  0  0  0  0  0  0
    3.8816   -9.1166   17.2493 C   0  0  0  0  0  0  0  0  0  0  0  0
   10.1297   -1.6575   23.2324 C   0  0  0  0  0  0  0  0  0  0  0  0
    9.4684   -1.6929   26.7263 F   0  0  0  0  0  0  0  0  0  0  0  0
    7.7963   -7.7906   17.9837 C   0  0  0  0  0  0  0  0  0  0  0  0
   10.5884   -3.0725   16.7902 O   0  0  0  0  0  0  0  0  0  0  0  0
   10.4323   -5.3494   20.3516 C   0  0  0  0  0  0  0  0  0  0  0  0
    7.1156   -7.5454   16.8218 C   0  0  0  0  0  0  0  0  0  0  0  0
   10.3885   -4.4388   19.2773 C   0  0  0  0  0  0  0  0  0  0  0  0
    4.5160   -9.3822   15.0841 C   0  0  0  0  0  0  0  0  0  0  0  0
  1  3  4  0
  1 24  4  0
  2  6  4  0
  2 15  4  0
  3  5  4  0
  3  6  4  0
  4 21  4  0
  4 29  4  0
  5 15  4  0
  5 28  1  0
  6 16  4  0
  7 18  4  0
  7 26  4  0
  8 18  1  0
  8 19  4  0
  8 22  4  0
  9 12  4  0
  9 19  4  0
 10 12  4  0
 10 22  4  0
 11 20  4  0
 11 21  4  0
 12 23  1  0
 13 20  4  0
 13 29  4  0
 14 17  4  0
 14 28  4  0
 15 25  2  0
 16 27  4  0
 17 18  4  0
 20 27  1  0
 24 27  4  0
 26 28  4  0
M  END
$$$$

 Created by Python create_sdf_string function

 29 33  0  0  0  0  0  0  0  0999 V2000
    8.8270   -7.0288   18.4251 C   0  0  0  0  0  0  0  0  0  0  0  0
    9.1576   -4.6236   15.8860 O   0  0  0  0  0  0  0  0  0  0  0  0
    9.1509   -5.9108   17.7177 C   0  0  0  0  0  0  0  0  0  0  0  0
    3.6373   -9.5349   16.0582 N   0  0  0  0  0  0  0  0  0  0  0  0
    9.9275   -4.8001   18.0438 N   0  0  0  0  0  0  0  0  0  0  0  0
    8.5908   -5.7425   16.4412 C   0  0  0  0  0  0  0  0  0  0  0  0
   10.5993   -4.8981   21.6068 C   0  0  0  0  0  0  0  0  0  0  0  0
   10.4258   -3.0106   23.0998 C   0  0  0  0  0  0  0  0  0  0  0  0
   10.2148   -3.4364   25.4200 C   0  0  0  0  0  0  0  0  0  0  0  0
    9.7853   -1.1840   24.4927 C   0  0  0  0  0  0  0  0  0  0  0  0
    5.0276   -8.5227   17.5352 C   0  0  0  0  0  0  0  0  0  0  0  0
    9.8187   -2.0895   25.5800 C   0  0  0  0  0  0  0  0  0  0  0  0
    5.6473   -8.7216   15.3158 C   0  0  0  0  0  0  0  0  0  0  0  0
   10.7581   -3.1233   19.4720 N   0  0  0  0  0  0  0  0  0  0  0  0
    9.9571   -4.0573   16.8866 C   0  0  0  0  0  0  0  0  0  0  0  0
    7.6213   -6.5618   16.0087 C   0  0  0  0  0  0  0  0  0  0  0  0
   10.8583   -2.6527   20.7222 C   0  0  0  0  0  0  0  0  0  0  0  0
   10.6412   -3.5089   21.7936 C   0  0  0  0  0  0  0  0  0  0  0  0
   10.4972   -3.8968   24.1589 C   0  0  0  0  0  0  0  0  0  0  0  0
    5.9260   -8.2736   16.5517 C   0  0  0  0  0  0  0  0  0  0  0  0
    3.8816   -9.1166   17.2493 C   0  0  0  0  0  0  0  0  0  0  0  0
   10.1297   -1.6575   23.2324 C   0  0  0  0  0  0  0  0  0  0  0  0
    9.4684   -1.6929   26.7263 F   0  0  0  0  0  0  0  0  0  0  0  0
    7.7963   -7.7906   17.9837 C   0  0  0  0  0  0  0  0  0  0  0  0
   10.5884   -3.0725   16.7902 O   0  0  0  0  0  0  0  0  0  0  0  0
   10.4323   -5.3494   20.3516 C   0  0  0  0  0  0  0  0  0  0  0  0
    7.1156   -7.5454   16.8218 C   0  0  0  0  0  0  0  0  0  0  0  0
   10.3885   -4.4388   19.2773 C   0  0  0  0  0  0  0  0  0  0  0  0
    4.5160   -9.3822   15.0841 C   0  0  0  0  0  0  0  0  0  0  0  0
  1  3  4  0
  1 24  4  0
  2  6  4  0
  2 15  4  0
  3  5  4  0
  3  6  4  0
  4 21  4  0
  4 29  4  0
  5 15  4  0
  5 28  1  0
  6 16  4  0
  7 18  4  0
  7 26  4  0
  8 18  1  0
  8 19  4  0
  8 22  4  0
  9 12  4  0
  9 19  4  0
 10 12  4  0
 10 22  4  0
 11 20  4  0
 11 21  4  0
 12 23  1  0
 13 20  4  0
 13 29  4  0
 14 17  4  0
 14 28  4  0
 15 25  2  0
 16 27  4  0
 17 18  4  0
 20 27  1  0
 24 27  4  0
 26 28  4  0
M  END
$$$$

 Created by Python create_sdf_string function

 29 33  0  0  0  0  0  0  0  0999 V2000
    8.8270   -7.0288   18.4251 C   0  0  0  0  0  0  0  0  0  0  0  0
    9.1576   -4.6236   15.8860 O   0  0  0  0  0  0  0  0  0  0  0  0
    9.1509   -5.9108   17.7177 C   0  0  0  0  0  0  0  0  0  0  0  0
    3.6373   -9.5349   16.0582 N   0  0  0  0  0  0  0  0  0  0  0  0
    9.9275   -4.8001   18.0438 N   0  0  0  0  0  0  0  0  0  0  0  0
    8.5908   -5.7425   16.4412 C   0  0  0  0  0  0  0  0  0  0  0  0
   10.5993   -4.8981   21.6068 C   0  0  0  0  0  0  0  0  0  0  0  0
   10.4258   -3.0106   23.0998 C   0  0  0  0  0  0  0  0  0  0  0  0
   10.2148   -3.4364   25.4200 C   0  0  0  0  0  0  0  0  0  0  0  0
    9.7853   -1.1840   24.4927 C   0  0  0  0  0  0  0  0  0  0  0  0
    5.0276   -8.5227   17.5352 C   0  0  0  0  0  0  0  0  0  0  0  0
    9.8187   -2.0895   25.5800 C   0  0  0  0  0  0  0  0  0  0  0  0
    5.6473   -8.7216   15.3158 C   0  0  0  0  0  0  0  0  0  0  0  0
   10.7581   -3.1233   19.4720 N   0  0  0  0  0  0  0  0  0  0  0  0
    9.9571   -4.0573   16.8866 C   0  0  0  0  0  0  0  0  0  0  0  0
    7.6213   -6.5618   16.0087 C   0  0  0  0  0  0  0  0  0  0  0  0
   10.8583   -2.6527   20.7222 C   0  0  0  0  0  0  0  0  0  0  0  0
   10.6412   -3.5089   21.7936 C   0  0  0  0  0  0  0  0  0  0  0  0
   10.4972   -3.8968   24.1589 C   0  0  0  0  0  0  0  0  0  0  0  0
    5.9260   -8.2736   16.5517 C   0  0  0  0  0  0  0  0  0  0  0  0
    3.8816   -9.1166   17.2493 C   0  0  0  0  0  0  0  0  0  0  0  0
   10.1297   -1.6575   23.2324 C   0  0  0  0  0  0  0  0  0  0  0  0
    9.4684   -1.6929   26.7263 F   0  0  0  0  0  0  0  0  0  0  0  0
    7.7963   -7.7906   17.9837 C   0  0  0  0  0  0  0  0  0  0  0  0
   10.5884   -3.0725   16.7902 O   0  0  0  0  0  0  0  0  0  0  0  0
   10.4323   -5.3494   20.3516 C   0  0  0  0  0  0  0  0  0  0  0  0
    7.1156   -7.5454   16.8218 C   0  0  0  0  0  0  0  0  0  0  0  0
   10.3885   -4.4388   19.2773 C   0  0  0  0  0  0  0  0  0  0  0  0
    4.5160   -9.3822   15.0841 C   0  0  0  0  0  0  0  0  0  0  0  0
  1  3  4  0
  1 24  4  0
  2  6  4  0
  2 15  4  0
  3  5  4  0
  3  6  4  0
  4 21  4  0
  4 29  4  0
  5 15  4  0
  5 28  1  0
  6 16  4  0
  7 18  4  0
  7 26  4  0
  8 18  1  0
  8 19  4  0
  8 22  4  0
  9 12  4  0
  9 19  4  0
 10 12  4  0
 10 22  4  0
 11 20  4  0
 11 21  4  0
 12 23  1  0
 13 20  4  0
 13 29  4  0
 14 17  4  0
 14 28  4  0
 15 25  2  0
 16 27  4  0
 17 18  4  0
 20 27  1  0
 24 27  4  0
 26 28  4  0
M  END
$$$$

 Created by Python create_sdf_string function

 29 33  0  0  0  0  0  0  0  0999 V2000
    8.8270   -7.0288   18.4251 C   0  0  0  0  0  0  0  0  0  0  0  0
    9.1576   -4.6236   15.8860 O   0  0  0  0  0  0  0  0  0  0  0  0
    9.1509   -5.9108   17.7177 C   0  0  0  0  0  0  0  0  0  0  0  0
    3.6373   -9.5349   16.0582 N   0  0  0  0  0  0  0  0  0  0  0  0
    9.9275   -4.8001   18.0438 N   0  0  0  0  0  0  0  0  0  0  0  0
    8.5908   -5.7425   16.4412 C   0  0  0  0  0  0  0  0  0  0  0  0
   10.5993   -4.8981   21.6068 C   0  0  0  0  0  0  0  0  0  0  0  0
   10.4258   -3.0106   23.0998 C   0  0  0  0  0  0  0  0  0  0  0  0
   10.2148   -3.4364   25.4200 C   0  0  0  0  0  0  0  0  0  0  0  0
    9.7853   -1.1840   24.4927 C   0  0  0  0  0  0  0  0  0  0  0  0
    5.0276   -8.5227   17.5352 C   0  0  0  0  0  0  0  0  0  0  0  0
    9.8187   -2.0895   25.5800 C   0  0  0  0  0  0  0  0  0  0  0  0
    5.6473   -8.7216   15.3158 C   0  0  0  0  0  0  0  0  0  0  0  0
   10.7581   -3.1233   19.4720 N   0  0  0  0  0  0  0  0  0  0  0  0
    9.9571   -4.0573   16.8866 C   0  0  0  0  0  0  0  0  0  0  0  0
    7.6213   -6.5618   16.0087 C   0  0  0  0  0  0  0  0  0  0  0  0
   10.8583   -2.6527   20.7222 C   0  0  0  0  0  0  0  0  0  0  0  0
   10.6412   -3.5089   21.7936 C   0  0  0  0  0  0  0  0  0  0  0  0
   10.4972   -3.8968   24.1589 C   0  0  0  0  0  0  0  0  0  0  0  0
    5.9260   -8.2736   16.5517 C   0  0  0  0  0  0  0  0  0  0  0  0
    3.8816   -9.1166   17.2493 C   0  0  0  0  0  0  0  0  0  0  0  0
   10.1297   -1.6575   23.2324 C   0  0  0  0  0  0  0  0  0  0  0  0
    9.4684   -1.6929   26.7263 F   0  0  0  0  0  0  0  0  0  0  0  0
    7.7963   -7.7906   17.9837 C   0  0  0  0  0  0  0  0  0  0  0  0
   10.5884   -3.0725   16.7902 O   0  0  0  0  0  0  0  0  0  0  0  0
   10.4323   -5.3494   20.3516 C   0  0  0  0  0  0  0  0  0  0  0  0
    7.1156   -7.5454   16.8218 C   0  0  0  0  0  0  0  0  0  0  0  0
   10.3885   -4.4388   19.2773 C   0  0  0  0  0  0  0  0  0  0  0  0
    4.5160   -9.3822   15.0841 C   0  0  0  0  0  0  0  0  0  0  0  0
  1  3  4  0
  1 24  4  0
  2  6  4  0
  2 15  4  0
  3  5  4  0
  3  6  4  0
  4 21  4  0
  4 29  4  0
  5 15  4  0
  5 28  1  0
  6 16  4  0
  7 18  4  0
  7 26  4  0
  8 18  1  0
  8 19  4  0
  8 22  4  0
  9 12  4  0
  9 19  4  0
 10 12  4  0
 10 22  4  0
 11 20  4  0
 11 21  4  0
 12 23  1  0
 13 20  4  0
 13 29  4  0
 14 17  4  0
 14 28  4  0
 15 25  2  0
 16 27  4  0
 17 18  4  0
 20 27  1  0
 24 27  4  0
 26 28  4  0
M  END
$$$$

 Created by Python create_sdf_string function

 29 33  0  0  0  0  0  0  0  0999 V2000
    8.8270   -7.0288   18.4251 C   0  0  0  0  0  0  0  0  0  0  0  0
    9.1576   -4.6236   15.8860 O   0  0  0  0  0  0  0  0  0  0  0  0
    9.1509   -5.9108   17.7177 C   0  0  0  0  0  0  0  0  0  0  0  0
    3.6373   -9.5349   16.0582 N   0  0  0  0  0  0  0  0  0  0  0  0
    9.9275   -4.8001   18.0438 N   0  0  0  0  0  0  0  0  0  0  0  0
    8.5908   -5.7425   16.4412 C   0  0  0  0  0  0  0  0  0  0  0  0
   10.5993   -4.8981   21.6068 C   0  0  0  0  0  0  0  0  0  0  0  0
   10.4258   -3.0106   23.0998 C   0  0  0  0  0  0  0  0  0  0  0  0
   10.2148   -3.4364   25.4200 C   0  0  0  0  0  0  0  0  0  0  0  0
    9.7853   -1.1840   24.4927 C   0  0  0  0  0  0  0  0  0  0  0  0
    5.0276   -8.5227   17.5352 C   0  0  0  0  0  0  0  0  0  0  0  0
    9.8187   -2.0895   25.5800 C   0  0  0  0  0  0  0  0  0  0  0  0
    5.6473   -8.7216   15.3158 C   0  0  0  0  0  0  0  0  0  0  0  0
   10.7581   -3.1233   19.4720 N   0  0  0  0  0  0  0  0  0  0  0  0
    9.9571   -4.0573   16.8866 C   0  0  0  0  0  0  0  0  0  0  0  0
    7.6213   -6.5618   16.0087 C   0  0  0  0  0  0  0  0  0  0  0  0
   10.8583   -2.6527   20.7222 C   0  0  0  0  0  0  0  0  0  0  0  0
   10.6412   -3.5089   21.7936 C   0  0  0  0  0  0  0  0  0  0  0  0
   10.4972   -3.8968   24.1589 C   0  0  0  0  0  0  0  0  0  0  0  0
    5.9260   -8.2736   16.5517 C   0  0  0  0  0  0  0  0  0  0  0  0
    3.8816   -9.1166   17.2493 C   0  0  0  0  0  0  0  0  0  0  0  0
   10.1297   -1.6575   23.2324 C   0  0  0  0  0  0  0  0  0  0  0  0
    9.4684   -1.6929   26.7263 F   0  0  0  0  0  0  0  0  0  0  0  0
    7.7963   -7.7906   17.9837 C   0  0  0  0  0  0  0  0  0  0  0  0
   10.5884   -3.0725   16.7902 O   0  0  0  0  0  0  0  0  0  0  0  0
   10.4323   -5.3494   20.3516 C   0  0  0  0  0  0  0  0  0  0  0  0
    7.1156   -7.5454   16.8218 C   0  0  0  0  0  0  0  0  0  0  0  0
   10.3885   -4.4388   19.2773 C   0  0  0  0  0  0  0  0  0  0  0  0
    4.5160   -9.3822   15.0841 C   0  0  0  0  0  0  0  0  0  0  0  0
  1  3  4  0
  1 24  4  0
  2  6  4  0
  2 15  4  0
  3  5  4  0
  3  6  4  0
  4 21  4  0
  4 29  4  0
  5 15  4  0
  5 28  1  0
  6 16  4  0
  7 18  4  0
  7 26  4  0
  8 18  1  0
  8 19  4  0
  8 22  4  0
  9 12  4  0
  9 19  4  0
 10 12  4  0
 10 22  4  0
 11 20  4  0
 11 21  4  0
 12 23  1  0
 13 20  4  0
 13 29  4  0
 14 17  4  0
 14 28  4  0
 15 25  2  0
 16 27  4  0
 17 18  4  0
 20 27  1  0
 24 27  4  0
 26 28  4  0
M  END
$$$$

 Created by Python create_sdf_string function

 29 33  0  0  0  0  0  0  0  0999 V2000
    8.8270   -7.0288   18.4251 C   0  0  0  0  0  0  0  0  0  0  0  0
    9.1576   -4.6236   15.8860 O   0  0  0  0  0  0  0  0  0  0  0  0
    9.1509   -5.9108   17.7177 C   0  0  0  0  0  0  0  0  0  0  0  0
    3.6373   -9.5349   16.0582 N   0  0  0  0  0  0  0  0  0  0  0  0
    9.9275   -4.8001   18.0438 N   0  0  0  0  0  0  0  0  0  0  0  0
    8.5908   -5.7425   16.4412 C   0  0  0  0  0  0  0  0  0  0  0  0
   10.5993   -4.8981   21.6068 C   0  0  0  0  0  0  0  0  0  0  0  0
   10.4258   -3.0106   23.0998 C   0  0  0  0  0  0  0  0  0  0  0  0
   10.2148   -3.4364   25.4200 C   0  0  0  0  0  0  0  0  0  0  0  0
    9.7853   -1.1840   24.4927 C   0  0  0  0  0  0  0  0  0  0  0  0
    5.0276   -8.5227   17.5352 C   0  0  0  0  0  0  0  0  0  0  0  0
    9.8187   -2.0895   25.5800 C   0  0  0  0  0  0  0  0  0  0  0  0
    5.6473   -8.7216   15.3158 C   0  0  0  0  0  0  0  0  0  0  0  0
   10.7581   -3.1233   19.4720 N   0  0  0  0  0  0  0  0  0  0  0  0
    9.9571   -4.0573   16.8866 C   0  0  0  0  0  0  0  0  0  0  0  0
    7.6213   -6.5618   16.0087 C   0  0  0  0  0  0  0  0  0  0  0  0
   10.8583   -2.6527   20.7222 C   0  0  0  0  0  0  0  0  0  0  0  0
   10.6412   -3.5089   21.7936 C   0  0  0  0  0  0  0  0  0  0  0  0
   10.4972   -3.8968   24.1589 C   0  0  0  0  0  0  0  0  0  0  0  0
    5.9260   -8.2736   16.5517 C   0  0  0  0  0  0  0  0  0  0  0  0
    3.8816   -9.1166   17.2493 C   0  0  0  0  0  0  0  0  0  0  0  0
   10.1297   -1.6575   23.2324 C   0  0  0  0  0  0  0  0  0  0  0  0
    9.4684   -1.6929   26.7263 F   0  0  0  0  0  0  0  0  0  0  0  0
    7.7963   -7.7906   17.9837 C   0  0  0  0  0  0  0  0  0  0  0  0
   10.5884   -3.0725   16.7902 O   0  0  0  0  0  0  0  0  0  0  0  0
   10.4323   -5.3494   20.3516 C   0  0  0  0  0  0  0  0  0  0  0  0
    7.1156   -7.5454   16.8218 C   0  0  0  0  0  0  0  0  0  0  0  0
   10.3885   -4.4388   19.2773 C   0  0  0  0  0  0  0  0  0  0  0  0
    4.5160   -9.3822   15.0841 C   0  0  0  0  0  0  0  0  0  0  0  0
  1  3  4  0
  1 24  4  0
  2  6  4  0
  2 15  4  0
  3  5  4  0
  3  6  4  0
  4 21  4  0
  4 29  4  0
  5 15  4  0
  5 28  1  0
  6 16  4  0
  7 18  4  0
  7 26  4  0
  8 18  1  0
  8 19  4  0
  8 22  4  0
  9 12  4  0
  9 19  4  0
 10 12  4  0
 10 22  4  0
 11 20  4  0
 11 21  4  0
 12 23  1  0
 13 20  4  0
 13 29  4  0
 14 17  4  0
 14 28  4  0
 15 25  2  0
 16 27  4  0
 17 18  4  0
 20 27  1  0
 24 27  4  0
 26 28  4  0
M  END
$$$$

 Created by Python create_sdf_string function

 29 33  0  0  0  0  0  0  0  0999 V2000
    8.8270   -7.0288   18.4251 C   0  0  0  0  0  0  0  0  0  0  0  0
    9.1576   -4.6236   15.8860 O   0  0  0  0  0  0  0  0  0  0  0  0
    9.1509   -5.9108   17.7177 C   0  0  0  0  0  0  0  0  0  0  0  0
    3.6373   -9.5349   16.0582 N   0  0  0  0  0  0  0  0  0  0  0  0
    9.9275   -4.8001   18.0438 N   0  0  0  0  0  0  0  0  0  0  0  0
    8.5908   -5.7425   16.4412 C   0  0  0  0  0  0  0  0  0  0  0  0
   10.5993   -4.8981   21.6068 C   0  0  0  0  0  0  0  0  0  0  0  0
   10.4258   -3.0106   23.0998 C   0  0  0  0  0  0  0  0  0  0  0  0
   10.2148   -3.4364   25.4200 C   0  0  0  0  0  0  0  0  0  0  0  0
    9.7853   -1.1840   24.4927 C   0  0  0  0  0  0  0  0  0  0  0  0
    5.0276   -8.5227   17.5352 C   0  0  0  0  0  0  0  0  0  0  0  0
    9.8187   -2.0895   25.5800 C   0  0  0  0  0  0  0  0  0  0  0  0
    5.6473   -8.7216   15.3158 C   0  0  0  0  0  0  0  0  0  0  0  0
   10.7581   -3.1233   19.4720 N   0  0  0  0  0  0  0  0  0  0  0  0
    9.9571   -4.0573   16.8866 C   0  0  0  0  0  0  0  0  0  0  0  0
    7.6213   -6.5618   16.0087 C   0  0  0  0  0  0  0  0  0  0  0  0
   10.8583   -2.6527   20.7222 C   0  0  0  0  0  0  0  0  0  0  0  0
   10.6412   -3.5089   21.7936 C   0  0  0  0  0  0  0  0  0  0  0  0
   10.4972   -3.8968   24.1589 C   0  0  0  0  0  0  0  0  0  0  0  0
    5.9260   -8.2736   16.5517 C   0  0  0  0  0  0  0  0  0  0  0  0
    3.8816   -9.1166   17.2493 C   0  0  0  0  0  0  0  0  0  0  0  0
   10.1297   -1.6575   23.2324 C   0  0  0  0  0  0  0  0  0  0  0  0
    9.4684   -1.6929   26.7263 F   0  0  0  0  0  0  0  0  0  0  0  0
    7.7963   -7.7906   17.9837 C   0  0  0  0  0  0  0  0  0  0  0  0
   10.5884   -3.0725   16.7902 O   0  0  0  0  0  0  0  0  0  0  0  0
   10.4323   -5.3494   20.3516 C   0  0  0  0  0  0  0  0  0  0  0  0
    7.1156   -7.5454   16.8218 C   0  0  0  0  0  0  0  0  0  0  0  0
   10.3885   -4.4388   19.2773 C   0  0  0  0  0  0  0  0  0  0  0  0
    4.5160   -9.3822   15.0841 C   0  0  0  0  0  0  0  0  0  0  0  0
  1  3  4  0
  1 24  4  0
  2  6  4  0
  2 15  4  0
  3  5  4  0
  3  6  4  0
  4 21  4  0
  4 29  4  0
  5 15  4  0
  5 28  1  0
  6 16  4  0
  7 18  4  0
  7 26  4  0
  8 18  1  0
  8 19  4  0
  8 22  4  0
  9 12  4  0
  9 19  4  0
 10 12  4  0
 10 22  4  0
 11 20  4  0
 11 21  4  0
 12 23  1  0
 13 20  4  0
 13 29  4  0
 14 17  4  0
 14 28  4  0
 15 25  2  0
 16 27  4  0
 17 18  4  0
 20 27  1  0
 24 27  4  0
 26 28  4  0
M  END
$$$$

 Created by Python create_sdf_string function

 29 33  0  0  0  0  0  0  0  0999 V2000
    8.8270   -7.0288   18.4251 C   0  0  0  0  0  0  0  0  0  0  0  0
    9.1576   -4.6236   15.8860 O   0  0  0  0  0  0  0  0  0  0  0  0
    9.1509   -5.9108   17.7177 C   0  0  0  0  0  0  0  0  0  0  0  0
    3.6373   -9.5349   16.0582 N   0  0  0  0  0  0  0  0  0  0  0  0
    9.9275   -4.8001   18.0438 N   0  0  0  0  0  0  0  0  0  0  0  0
    8.5908   -5.7425   16.4412 C   0  0  0  0  0  0  0  0  0  0  0  0
   10.5993   -4.8981   21.6068 C   0  0  0  0  0  0  0  0  0  0  0  0
   10.4258   -3.0106   23.0998 C   0  0  0  0  0  0  0  0  0  0  0  0
   10.2148   -3.4364   25.4200 C   0  0  0  0  0  0  0  0  0  0  0  0
    9.7853   -1.1840   24.4927 C   0  0  0  0  0  0  0  0  0  0  0  0
    5.0276   -8.5227   17.5352 C   0  0  0  0  0  0  0  0  0  0  0  0
    9.8187   -2.0895   25.5800 C   0  0  0  0  0  0  0  0  0  0  0  0
    5.6473   -8.7216   15.3158 C   0  0  0  0  0  0  0  0  0  0  0  0
   10.7581   -3.1233   19.4720 N   0  0  0  0  0  0  0  0  0  0  0  0
    9.9571   -4.0573   16.8866 C   0  0  0  0  0  0  0  0  0  0  0  0
    7.6213   -6.5618   16.0087 C   0  0  0  0  0  0  0  0  0  0  0  0
   10.8583   -2.6527   20.7222 C   0  0  0  0  0  0  0  0  0  0  0  0
   10.6412   -3.5089   21.7936 C   0  0  0  0  0  0  0  0  0  0  0  0
   10.4972   -3.8968   24.1589 C   0  0  0  0  0  0  0  0  0  0  0  0
    5.9260   -8.2736   16.5517 C   0  0  0  0  0  0  0  0  0  0  0  0
    3.8816   -9.1166   17.2493 C   0  0  0  0  0  0  0  0  0  0  0  0
   10.1297   -1.6575   23.2324 C   0  0  0  0  0  0  0  0  0  0  0  0
    9.4684   -1.6929   26.7263 F   0  0  0  0  0  0  0  0  0  0  0  0
    7.7963   -7.7906   17.9837 C   0  0  0  0  0  0  0  0  0  0  0  0
   10.5884   -3.0725   16.7902 O   0  0  0  0  0  0  0  0  0  0  0  0
   10.4323   -5.3494   20.3516 C   0  0  0  0  0  0  0  0  0  0  0  0
    7.1156   -7.5454   16.8218 C   0  0  0  0  0  0  0  0  0  0  0  0
   10.3885   -4.4388   19.2773 C   0  0  0  0  0  0  0  0  0  0  0  0
    4.5160   -9.3822   15.0841 C   0  0  0  0  0  0  0  0  0  0  0  0
  1  3  4  0
  1 24  4  0
  2  6  4  0
  2 15  4  0
  3  5  4  0
  3  6  4  0
  4 21  4  0
  4 29  4  0
  5 15  4  0
  5 28  1  0
  6 16  4  0
  7 18  4  0
  7 26  4  0
  8 18  1  0
  8 19  4  0
  8 22  4  0
  9 12  4  0
  9 19  4  0
 10 12  4  0
 10 22  4  0
 11 20  4  0
 11 21  4  0
 12 23  1  0
 13 20  4  0
 13 29  4  0
 14 17  4  0
 14 28  4  0
 15 25  2  0
 16 27  4  0
 17 18  4  0
 20 27  1  0
 24 27  4  0
 26 28  4  0
M  END
$$$$

 Created by Python create_sdf_string function

 29 33  0  0  0  0  0  0  0  0999 V2000
    8.8270   -7.0288   18.4251 C   0  0  0  0  0  0  0  0  0  0  0  0
    9.1576   -4.6236   15.8860 O   0  0  0  0  0  0  0  0  0  0  0  0
    9.1509   -5.9108   17.7177 C   0  0  0  0  0  0  0  0  0  0  0  0
    3.6373   -9.5349   16.0582 N   0  0  0  0  0  0  0  0  0  0  0  0
    9.9275   -4.8001   18.0438 N   0  0  0  0  0  0  0  0  0  0  0  0
    8.5908   -5.7425   16.4412 C   0  0  0  0  0  0  0  0  0  0  0  0
   10.5993   -4.8981   21.6068 C   0  0  0  0  0  0  0  0  0  0  0  0
   10.4258   -3.0106   23.0998 C   0  0  0  0  0  0  0  0  0  0  0  0
   10.2148   -3.4364   25.4200 C   0  0  0  0  0  0  0  0  0  0  0  0
    9.7853   -1.1840   24.4927 C   0  0  0  0  0  0  0  0  0  0  0  0
    5.0276   -8.5227   17.5352 C   0  0  0  0  0  0  0  0  0  0  0  0
    9.8187   -2.0895   25.5800 C   0  0  0  0  0  0  0  0  0  0  0  0
    5.6473   -8.7216   15.3158 C   0  0  0  0  0  0  0  0  0  0  0  0
   10.7581   -3.1233   19.4720 N   0  0  0  0  0  0  0  0  0  0  0  0
    9.9571   -4.0573   16.8866 C   0  0  0  0  0  0  0  0  0  0  0  0
    7.6213   -6.5618   16.0087 C   0  0  0  0  0  0  0  0  0  0  0  0
   10.8583   -2.6527   20.7222 C   0  0  0  0  0  0  0  0  0  0  0  0
   10.6412   -3.5089   21.7936 C   0  0  0  0  0  0  0  0  0  0  0  0
   10.4972   -3.8968   24.1589 C   0  0  0  0  0  0  0  0  0  0  0  0
    5.9260   -8.2736   16.5517 C   0  0  0  0  0  0  0  0  0  0  0  0
    3.8816   -9.1166   17.2493 C   0  0  0  0  0  0  0  0  0  0  0  0
   10.1297   -1.6575   23.2324 C   0  0  0  0  0  0  0  0  0  0  0  0
    9.4684   -1.6929   26.7263 F   0  0  0  0  0  0  0  0  0  0  0  0
    7.7963   -7.7906   17.9837 C   0  0  0  0  0  0  0  0  0  0  0  0
   10.5884   -3.0725   16.7902 O   0  0  0  0  0  0  0  0  0  0  0  0
   10.4323   -5.3494   20.3516 C   0  0  0  0  0  0  0  0  0  0  0  0
    7.1156   -7.5454   16.8218 C   0  0  0  0  0  0  0  0  0  0  0  0
   10.3885   -4.4388   19.2773 C   0  0  0  0  0  0  0  0  0  0  0  0
    4.5160   -9.3822   15.0841 C   0  0  0  0  0  0  0  0  0  0  0  0
  1  3  4  0
  1 24  4  0
  2  6  4  0
  2 15  4  0
  3  5  4  0
  3  6  4  0
  4 21  4  0
  4 29  4  0
  5 15  4  0
  5 28  1  0
  6 16  4  0
  7 18  4  0
  7 26  4  0
  8 18  1  0
  8 19  4  0
  8 22  4  0
  9 12  4  0
  9 19  4  0
 10 12  4  0
 10 22  4  0
 11 20  4  0
 11 21  4  0
 12 23  1  0
 13 20  4  0
 13 29  4  0
 14 17  4  0
 14 28  4  0
 15 25  2  0
 16 27  4  0
 17 18  4  0
 20 27  1  0
 24 27  4  0
 26 28  4  0
M  END
$$$$

 Created by Python create_sdf_string function

 29 33  0  0  0  0  0  0  0  0999 V2000
    8.8270   -7.0288   18.4251 C   0  0  0  0  0  0  0  0  0  0  0  0
    9.1576   -4.6236   15.8860 O   0  0  0  0  0  0  0  0  0  0  0  0
    9.1509   -5.9108   17.7177 C   0  0  0  0  0  0  0  0  0  0  0  0
    3.6373   -9.5349   16.0582 N   0  0  0  0  0  0  0  0  0  0  0  0
    9.9275   -4.8001   18.0438 N   0  0  0  0  0  0  0  0  0  0  0  0
    8.5908   -5.7425   16.4412 C   0  0  0  0  0  0  0  0  0  0  0  0
   10.5993   -4.8981   21.6068 C   0  0  0  0  0  0  0  0  0  0  0  0
   10.4258   -3.0106   23.0998 C   0  0  0  0  0  0  0  0  0  0  0  0
   10.2148   -3.4364   25.4200 C   0  0  0  0  0  0  0  0  0  0  0  0
    9.7853   -1.1840   24.4927 C   0  0  0  0  0  0  0  0  0  0  0  0
    5.0276   -8.5227   17.5352 C   0  0  0  0  0  0  0  0  0  0  0  0
    9.8187   -2.0895   25.5800 C   0  0  0  0  0  0  0  0  0  0  0  0
    5.6473   -8.7216   15.3158 C   0  0  0  0  0  0  0  0  0  0  0  0
   10.7581   -3.1233   19.4720 N   0  0  0  0  0  0  0  0  0  0  0  0
    9.9571   -4.0573   16.8866 C   0  0  0  0  0  0  0  0  0  0  0  0
    7.6213   -6.5618   16.0087 C   0  0  0  0  0  0  0  0  0  0  0  0
   10.8583   -2.6527   20.7222 C   0  0  0  0  0  0  0  0  0  0  0  0
   10.6412   -3.5089   21.7936 C   0  0  0  0  0  0  0  0  0  0  0  0
   10.4972   -3.8968   24.1589 C   0  0  0  0  0  0  0  0  0  0  0  0
    5.9260   -8.2736   16.5517 C   0  0  0  0  0  0  0  0  0  0  0  0
    3.8816   -9.1166   17.2493 C   0  0  0  0  0  0  0  0  0  0  0  0
   10.1297   -1.6575   23.2324 C   0  0  0  0  0  0  0  0  0  0  0  0
    9.4684   -1.6929   26.7263 F   0  0  0  0  0  0  0  0  0  0  0  0
    7.7963   -7.7906   17.9837 C   0  0  0  0  0  0  0  0  0  0  0  0
   10.5884   -3.0725   16.7902 O   0  0  0  0  0  0  0  0  0  0  0  0
   10.4323   -5.3494   20.3516 C   0  0  0  0  0  0  0  0  0  0  0  0
    7.1156   -7.5454   16.8218 C   0  0  0  0  0  0  0  0  0  0  0  0
   10.3885   -4.4388   19.2773 C   0  0  0  0  0  0  0  0  0  0  0  0
    4.5160   -9.3822   15.0841 C   0  0  0  0  0  0  0  0  0  0  0  0
  1  3  4  0
  1 24  4  0
  2  6  4  0
  2 15  4  0
  3  5  4  0
  3  6  4  0
  4 21  4  0
  4 29  4  0
  5 15  4  0
  5 28  1  0
  6 16  4  0
  7 18  4  0
  7 26  4  0
  8 18  1  0
  8 19  4  0
  8 22  4  0
  9 12  4  0
  9 19  4  0
 10 12  4  0
 10 22  4  0
 11 20  4  0
 11 21  4  0
 12 23  1  0
 13 20  4  0
 13 29  4  0
 14 17  4  0
 14 28  4  0
 15 25  2  0
 16 27  4  0
 17 18  4  0
 20 27  1  0
 24 27  4  0
 26 28  4  0
M  END
$$$$

 Created by Python create_sdf_string function

 29 33  0  0  0  0  0  0  0  0999 V2000
    8.8270   -7.0288   18.4251 C   0  0  0  0  0  0  0  0  0  0  0  0
    9.1576   -4.6236   15.8860 O   0  0  0  0  0  0  0  0  0  0  0  0
    9.1509   -5.9108   17.7177 C   0  0  0  0  0  0  0  0  0  0  0  0
    3.6373   -9.5349   16.0582 N   0  0  0  0  0  0  0  0  0  0  0  0
    9.9275   -4.8001   18.0438 N   0  0  0  0  0  0  0  0  0  0  0  0
    8.5908   -5.7425   16.4412 C   0  0  0  0  0  0  0  0  0  0  0  0
   10.5993   -4.8981   21.6068 C   0  0  0  0  0  0  0  0  0  0  0  0
   10.4258   -3.0106   23.0998 C   0  0  0  0  0  0  0  0  0  0  0  0
   10.2148   -3.4364   25.4200 C   0  0  0  0  0  0  0  0  0  0  0  0
    9.7853   -1.1840   24.4927 C   0  0  0  0  0  0  0  0  0  0  0  0
    5.0276   -8.5227   17.5352 C   0  0  0  0  0  0  0  0  0  0  0  0
    9.8187   -2.0895   25.5800 C   0  0  0  0  0  0  0  0  0  0  0  0
    5.6473   -8.7216   15.3158 C   0  0  0  0  0  0  0  0  0  0  0  0
   10.7581   -3.1233   19.4720 N   0  0  0  0  0  0  0  0  0  0  0  0
    9.9571   -4.0573   16.8866 C   0  0  0  0  0  0  0  0  0  0  0  0
    7.6213   -6.5618   16.0087 C   0  0  0  0  0  0  0  0  0  0  0  0
   10.8583   -2.6527   20.7222 C   0  0  0  0  0  0  0  0  0  0  0  0
   10.6412   -3.5089   21.7936 C   0  0  0  0  0  0  0  0  0  0  0  0
   10.4972   -3.8968   24.1589 C   0  0  0  0  0  0  0  0  0  0  0  0
    5.9260   -8.2736   16.5517 C   0  0  0  0  0  0  0  0  0  0  0  0
    3.8816   -9.1166   17.2493 C   0  0  0  0  0  0  0  0  0  0  0  0
   10.1297   -1.6575   23.2324 C   0  0  0  0  0  0  0  0  0  0  0  0
    9.4684   -1.6929   26.7263 F   0  0  0  0  0  0  0  0  0  0  0  0
    7.7963   -7.7906   17.9837 C   0  0  0  0  0  0  0  0  0  0  0  0
   10.5884   -3.0725   16.7902 O   0  0  0  0  0  0  0  0  0  0  0  0
   10.4323   -5.3494   20.3516 C   0  0  0  0  0  0  0  0  0  0  0  0
    7.1156   -7.5454   16.8218 C   0  0  0  0  0  0  0  0  0  0  0  0
   10.3885   -4.4388   19.2773 C   0  0  0  0  0  0  0  0  0  0  0  0
    4.5160   -9.3822   15.0841 C   0  0  0  0  0  0  0  0  0  0  0  0
  1  3  4  0
  1 24  4  0
  2  6  4  0
  2 15  4  0
  3  5  4  0
  3  6  4  0
  4 21  4  0
  4 29  4  0
  5 15  4  0
  5 28  1  0
  6 16  4  0
  7 18  4  0
  7 26  4  0
  8 18  1  0
  8 19  4  0
  8 22  4  0
  9 12  4  0
  9 19  4  0
 10 12  4  0
 10 22  4  0
 11 20  4  0
 11 21  4  0
 12 23  1  0
 13 20  4  0
 13 29  4  0
 14 17  4  0
 14 28  4  0
 15 25  2  0
 16 27  4  0
 17 18  4  0
 20 27  1  0
 24 27  4  0
 26 28  4  0
M  END
$$$$

 Created by Python create_sdf_string function

 29 33  0  0  0  0  0  0  0  0999 V2000
    8.8270   -7.0288   18.4251 C   0  0  0  0  0  0  0  0  0  0  0  0
    9.1576   -4.6236   15.8860 O   0  0  0  0  0  0  0  0  0  0  0  0
    9.1509   -5.9108   17.7177 C   0  0  0  0  0  0  0  0  0  0  0  0
    3.6373   -9.5349   16.0582 N   0  0  0  0  0  0  0  0  0  0  0  0
    9.9275   -4.8001   18.0438 N   0  0  0  0  0  0  0  0  0  0  0  0
    8.5908   -5.7425   16.4412 C   0  0  0  0  0  0  0  0  0  0  0  0
   10.5993   -4.8981   21.6068 C   0  0  0  0  0  0  0  0  0  0  0  0
   10.4258   -3.0106   23.0998 C   0  0  0  0  0  0  0  0  0  0  0  0
   10.2148   -3.4364   25.4200 C   0  0  0  0  0  0  0  0  0  0  0  0
    9.7853   -1.1840   24.4927 C   0  0  0  0  0  0  0  0  0  0  0  0
    5.0276   -8.5227   17.5352 C   0  0  0  0  0  0  0  0  0  0  0  0
    9.8187   -2.0895   25.5800 C   0  0  0  0  0  0  0  0  0  0  0  0
    5.6473   -8.7216   15.3158 C   0  0  0  0  0  0  0  0  0  0  0  0
   10.7581   -3.1233   19.4720 N   0  0  0  0  0  0  0  0  0  0  0  0
    9.9571   -4.0573   16.8866 C   0  0  0  0  0  0  0  0  0  0  0  0
    7.6213   -6.5618   16.0087 C   0  0  0  0  0  0  0  0  0  0  0  0
   10.8583   -2.6527   20.7222 C   0  0  0  0  0  0  0  0  0  0  0  0
   10.6412   -3.5089   21.7936 C   0  0  0  0  0  0  0  0  0  0  0  0
   10.4972   -3.8968   24.1589 C   0  0  0  0  0  0  0  0  0  0  0  0
    5.9260   -8.2736   16.5517 C   0  0  0  0  0  0  0  0  0  0  0  0
    3.8816   -9.1166   17.2493 C   0  0  0  0  0  0  0  0  0  0  0  0
   10.1297   -1.6575   23.2324 C   0  0  0  0  0  0  0  0  0  0  0  0
    9.4684   -1.6929   26.7263 F   0  0  0  0  0  0  0  0  0  0  0  0
    7.7963   -7.7906   17.9837 C   0  0  0  0  0  0  0  0  0  0  0  0
   10.5884   -3.0725   16.7902 O   0  0  0  0  0  0  0  0  0  0  0  0
   10.4323   -5.3494   20.3516 C   0  0  0  0  0  0  0  0  0  0  0  0
    7.1156   -7.5454   16.8218 C   0  0  0  0  0  0  0  0  0  0  0  0
   10.3885   -4.4388   19.2773 C   0  0  0  0  0  0  0  0  0  0  0  0
    4.5160   -9.3822   15.0841 C   0  0  0  0  0  0  0  0  0  0  0  0
  1  3  4  0
  1 24  4  0
  2  6  4  0
  2 15  4  0
  3  5  4  0
  3  6  4  0
  4 21  4  0
  4 29  4  0
  5 15  4  0
  5 28  1  0
  6 16  4  0
  7 18  4  0
  7 26  4  0
  8 18  1  0
  8 19  4  0
  8 22  4  0
  9 12  4  0
  9 19  4  0
 10 12  4  0
 10 22  4  0
 11 20  4  0
 11 21  4  0
 12 23  1  0
 13 20  4  0
 13 29  4  0
 14 17  4  0
 14 28  4  0
 15 25  2  0
 16 27  4  0
 17 18  4  0
 20 27  1  0
 24 27  4  0
 26 28  4  0
M  END
$$$$

 Created by Python create_sdf_string function

 29 33  0  0  0  0  0  0  0  0999 V2000
    8.8270   -7.0288   18.4251 C   0  0  0  0  0  0  0  0  0  0  0  0
    9.1576   -4.6236   15.8860 O   0  0  0  0  0  0  0  0  0  0  0  0
    9.1509   -5.9108   17.7177 C   0  0  0  0  0  0  0  0  0  0  0  0
    3.6373   -9.5349   16.0582 N   0  0  0  0  0  0  0  0  0  0  0  0
    9.9275   -4.8001   18.0438 N   0  0  0  0  0  0  0  0  0  0  0  0
    8.5908   -5.7425   16.4412 C   0  0  0  0  0  0  0  0  0  0  0  0
   10.5993   -4.8981   21.6068 C   0  0  0  0  0  0  0  0  0  0  0  0
   10.4258   -3.0106   23.0998 C   0  0  0  0  0  0  0  0  0  0  0  0
   10.2148   -3.4364   25.4200 C   0  0  0  0  0  0  0  0  0  0  0  0
    9.7853   -1.1840   24.4927 C   0  0  0  0  0  0  0  0  0  0  0  0
    5.0276   -8.5227   17.5352 C   0  0  0  0  0  0  0  0  0  0  0  0
    9.8187   -2.0895   25.5800 C   0  0  0  0  0  0  0  0  0  0  0  0
    5.6473   -8.7216   15.3158 C   0  0  0  0  0  0  0  0  0  0  0  0
   10.7581   -3.1233   19.4720 N   0  0  0  0  0  0  0  0  0  0  0  0
    9.9571   -4.0573   16.8866 C   0  0  0  0  0  0  0  0  0  0  0  0
    7.6213   -6.5618   16.0087 C   0  0  0  0  0  0  0  0  0  0  0  0
   10.8583   -2.6527   20.7222 C   0  0  0  0  0  0  0  0  0  0  0  0
   10.6412   -3.5089   21.7936 C   0  0  0  0  0  0  0  0  0  0  0  0
   10.4972   -3.8968   24.1589 C   0  0  0  0  0  0  0  0  0  0  0  0
    5.9260   -8.2736   16.5517 C   0  0  0  0  0  0  0  0  0  0  0  0
    3.8816   -9.1166   17.2493 C   0  0  0  0  0  0  0  0  0  0  0  0
   10.1297   -1.6575   23.2324 C   0  0  0  0  0  0  0  0  0  0  0  0
    9.4684   -1.6929   26.7263 F   0  0  0  0  0  0  0  0  0  0  0  0
    7.7963   -7.7906   17.9837 C   0  0  0  0  0  0  0  0  0  0  0  0
   10.5884   -3.0725   16.7902 O   0  0  0  0  0  0  0  0  0  0  0  0
   10.4323   -5.3494   20.3516 C   0  0  0  0  0  0  0  0  0  0  0  0
    7.1156   -7.5454   16.8218 C   0  0  0  0  0  0  0  0  0  0  0  0
   10.3885   -4.4388   19.2773 C   0  0  0  0  0  0  0  0  0  0  0  0
    4.5160   -9.3822   15.0841 C   0  0  0  0  0  0  0  0  0  0  0  0
  1  3  4  0
  1 24  4  0
  2  6  4  0
  2 15  4  0
  3  5  4  0
  3  6  4  0
  4 21  4  0
  4 29  4  0
  5 15  4  0
  5 28  1  0
  6 16  4  0
  7 18  4  0
  7 26  4  0
  8 18  1  0
  8 19  4  0
  8 22  4  0
  9 12  4  0
  9 19  4  0
 10 12  4  0
 10 22  4  0
 11 20  4  0
 11 21  4  0
 12 23  1  0
 13 20  4  0
 13 29  4  0
 14 17  4  0
 14 28  4  0
 15 25  2  0
 16 27  4  0
 17 18  4  0
 20 27  1  0
 24 27  4  0
 26 28  4  0
M  END
$$$$

 Created by Python create_sdf_string function

 29 33  0  0  0  0  0  0  0  0999 V2000
    8.8270   -7.0288   18.4251 C   0  0  0  0  0  0  0  0  0  0  0  0
    9.1576   -4.6236   15.8860 O   0  0  0  0  0  0  0  0  0  0  0  0
    9.1509   -5.9108   17.7177 C   0  0  0  0  0  0  0  0  0  0  0  0
    3.6373   -9.5349   16.0582 N   0  0  0  0  0  0  0  0  0  0  0  0
    9.9275   -4.8001   18.0438 N   0  0  0  0  0  0  0  0  0  0  0  0
    8.5908   -5.7425   16.4412 C   0  0  0  0  0  0  0  0  0  0  0  0
   10.5993   -4.8981   21.6068 C   0  0  0  0  0  0  0  0  0  0  0  0
   10.4258   -3.0106   23.0998 C   0  0  0  0  0  0  0  0  0  0  0  0
   10.2148   -3.4364   25.4200 C   0  0  0  0  0  0  0  0  0  0  0  0
    9.7853   -1.1840   24.4927 C   0  0  0  0  0  0  0  0  0  0  0  0
    5.0276   -8.5227   17.5352 C   0  0  0  0  0  0  0  0  0  0  0  0
    9.8187   -2.0895   25.5800 C   0  0  0  0  0  0  0  0  0  0  0  0
    5.6473   -8.7216   15.3158 C   0  0  0  0  0  0  0  0  0  0  0  0
   10.7581   -3.1233   19.4720 N   0  0  0  0  0  0  0  0  0  0  0  0
    9.9571   -4.0573   16.8866 C   0  0  0  0  0  0  0  0  0  0  0  0
    7.6213   -6.5618   16.0087 C   0  0  0  0  0  0  0  0  0  0  0  0
   10.8583   -2.6527   20.7222 C   0  0  0  0  0  0  0  0  0  0  0  0
   10.6412   -3.5089   21.7936 C   0  0  0  0  0  0  0  0  0  0  0  0
   10.4972   -3.8968   24.1589 C   0  0  0  0  0  0  0  0  0  0  0  0
    5.9260   -8.2736   16.5517 C   0  0  0  0  0  0  0  0  0  0  0  0
    3.8816   -9.1166   17.2493 C   0  0  0  0  0  0  0  0  0  0  0  0
   10.1297   -1.6575   23.2324 C   0  0  0  0  0  0  0  0  0  0  0  0
    9.4684   -1.6929   26.7263 F   0  0  0  0  0  0  0  0  0  0  0  0
    7.7963   -7.7906   17.9837 C   0  0  0  0  0  0  0  0  0  0  0  0
   10.5884   -3.0725   16.7902 O   0  0  0  0  0  0  0  0  0  0  0  0
   10.4323   -5.3494   20.3516 C   0  0  0  0  0  0  0  0  0  0  0  0
    7.1156   -7.5454   16.8218 C   0  0  0  0  0  0  0  0  0  0  0  0
   10.3885   -4.4388   19.2773 C   0  0  0  0  0  0  0  0  0  0  0  0
    4.5160   -9.3822   15.0841 C   0  0  0  0  0  0  0  0  0  0  0  0
  1  3  4  0
  1 24  4  0
  2  6  4  0
  2 15  4  0
  3  5  4  0
  3  6  4  0
  4 21  4  0
  4 29  4  0
  5 15  4  0
  5 28  1  0
  6 16  4  0
  7 18  4  0
  7 26  4  0
  8 18  1  0
  8 19  4  0
  8 22  4  0
  9 12  4  0
  9 19  4  0
 10 12  4  0
 10 22  4  0
 11 20  4  0
 11 21  4  0
 12 23  1  0
 13 20  4  0
 13 29  4  0
 14 17  4  0
 14 28  4  0
 15 25  2  0
 16 27  4  0
 17 18  4  0
 20 27  1  0
 24 27  4  0
 26 28  4  0
M  END
$$$$

 Created by Python create_sdf_string function

 29 33  0  0  0  0  0  0  0  0999 V2000
    8.8270   -7.0288   18.4251 C   0  0  0  0  0  0  0  0  0  0  0  0
    9.1576   -4.6236   15.8860 O   0  0  0  0  0  0  0  0  0  0  0  0
    9.1509   -5.9108   17.7177 C   0  0  0  0  0  0  0  0  0  0  0  0
    3.6373   -9.5349   16.0582 N   0  0  0  0  0  0  0  0  0  0  0  0
    9.9275   -4.8001   18.0438 N   0  0  0  0  0  0  0  0  0  0  0  0
    8.5908   -5.7425   16.4412 C   0  0  0  0  0  0  0  0  0  0  0  0
   10.5993   -4.8981   21.6068 C   0  0  0  0  0  0  0  0  0  0  0  0
   10.4258   -3.0106   23.0998 C   0  0  0  0  0  0  0  0  0  0  0  0
   10.2148   -3.4364   25.4200 C   0  0  0  0  0  0  0  0  0  0  0  0
    9.7853   -1.1840   24.4927 C   0  0  0  0  0  0  0  0  0  0  0  0
    5.0276   -8.5227   17.5352 C   0  0  0  0  0  0  0  0  0  0  0  0
    9.8187   -2.0895   25.5800 C   0  0  0  0  0  0  0  0  0  0  0  0
    5.6473   -8.7216   15.3158 C   0  0  0  0  0  0  0  0  0  0  0  0
   10.7581   -3.1233   19.4720 N   0  0  0  0  0  0  0  0  0  0  0  0
    9.9571   -4.0573   16.8866 C   0  0  0  0  0  0  0  0  0  0  0  0
    7.6213   -6.5618   16.0087 C   0  0  0  0  0  0  0  0  0  0  0  0
   10.8583   -2.6527   20.7222 C   0  0  0  0  0  0  0  0  0  0  0  0
   10.6412   -3.5089   21.7936 C   0  0  0  0  0  0  0  0  0  0  0  0
   10.4972   -3.8968   24.1589 C   0  0  0  0  0  0  0  0  0  0  0  0
    5.9260   -8.2736   16.5517 C   0  0  0  0  0  0  0  0  0  0  0  0
    3.8816   -9.1166   17.2493 C   0  0  0  0  0  0  0  0  0  0  0  0
   10.1297   -1.6575   23.2324 C   0  0  0  0  0  0  0  0  0  0  0  0
    9.4684   -1.6929   26.7263 F   0  0  0  0  0  0  0  0  0  0  0  0
    7.7963   -7.7906   17.9837 C   0  0  0  0  0  0  0  0  0  0  0  0
   10.5884   -3.0725   16.7902 O   0  0  0  0  0  0  0  0  0  0  0  0
   10.4323   -5.3494   20.3516 C   0  0  0  0  0  0  0  0  0  0  0  0
    7.1156   -7.5454   16.8218 C   0  0  0  0  0  0  0  0  0  0  0  0
   10.3885   -4.4388   19.2773 C   0  0  0  0  0  0  0  0  0  0  0  0
    4.5160   -9.3822   15.0841 C   0  0  0  0  0  0  0  0  0  0  0  0
  1  3  4  0
  1 24  4  0
  2  6  4  0
  2 15  4  0
  3  5  4  0
  3  6  4  0
  4 21  4  0
  4 29  4  0
  5 15  4  0
  5 28  1  0
  6 16  4  0
  7 18  4  0
  7 26  4  0
  8 18  1  0
  8 19  4  0
  8 22  4  0
  9 12  4  0
  9 19  4  0
 10 12  4  0
 10 22  4  0
 11 20  4  0
 11 21  4  0
 12 23  1  0
 13 20  4  0
 13 29  4  0
 14 17  4  0
 14 28  4  0
 15 25  2  0
 16 27  4  0
 17 18  4  0
 20 27  1  0
 24 27  4  0
 26 28  4  0
M  END
$$$$

 Created by Python create_sdf_string function

 29 33  0  0  0  0  0  0  0  0999 V2000
    8.8270   -7.0288   18.4251 C   0  0  0  0  0  0  0  0  0  0  0  0
    9.1576   -4.6236   15.8860 O   0  0  0  0  0  0  0  0  0  0  0  0
    9.1509   -5.9108   17.7177 C   0  0  0  0  0  0  0  0  0  0  0  0
    3.6373   -9.5349   16.0582 N   0  0  0  0  0  0  0  0  0  0  0  0
    9.9275   -4.8001   18.0438 N   0  0  0  0  0  0  0  0  0  0  0  0
    8.5908   -5.7425   16.4412 C   0  0  0  0  0  0  0  0  0  0  0  0
   10.5993   -4.8981   21.6068 C   0  0  0  0  0  0  0  0  0  0  0  0
   10.4258   -3.0106   23.0998 C   0  0  0  0  0  0  0  0  0  0  0  0
   10.2148   -3.4364   25.4200 C   0  0  0  0  0  0  0  0  0  0  0  0
    9.7853   -1.1840   24.4927 C   0  0  0  0  0  0  0  0  0  0  0  0
    5.0276   -8.5227   17.5352 C   0  0  0  0  0  0  0  0  0  0  0  0
    9.8187   -2.0895   25.5800 C   0  0  0  0  0  0  0  0  0  0  0  0
    5.6473   -8.7216   15.3158 C   0  0  0  0  0  0  0  0  0  0  0  0
   10.7581   -3.1233   19.4720 N   0  0  0  0  0  0  0  0  0  0  0  0
    9.9571   -4.0573   16.8866 C   0  0  0  0  0  0  0  0  0  0  0  0
    7.6213   -6.5618   16.0087 C   0  0  0  0  0  0  0  0  0  0  0  0
   10.8583   -2.6527   20.7222 C   0  0  0  0  0  0  0  0  0  0  0  0
   10.6412   -3.5089   21.7936 C   0  0  0  0  0  0  0  0  0  0  0  0
   10.4972   -3.8968   24.1589 C   0  0  0  0  0  0  0  0  0  0  0  0
    5.9260   -8.2736   16.5517 C   0  0  0  0  0  0  0  0  0  0  0  0
    3.8816   -9.1166   17.2493 C   0  0  0  0  0  0  0  0  0  0  0  0
   10.1297   -1.6575   23.2324 C   0  0  0  0  0  0  0  0  0  0  0  0
    9.4684   -1.6929   26.7263 F   0  0  0  0  0  0  0  0  0  0  0  0
    7.7963   -7.7906   17.9837 C   0  0  0  0  0  0  0  0  0  0  0  0
   10.5884   -3.0725   16.7902 O   0  0  0  0  0  0  0  0  0  0  0  0
   10.4323   -5.3494   20.3516 C   0  0  0  0  0  0  0  0  0  0  0  0
    7.1156   -7.5454   16.8218 C   0  0  0  0  0  0  0  0  0  0  0  0
   10.3885   -4.4388   19.2773 C   0  0  0  0  0  0  0  0  0  0  0  0
    4.5160   -9.3822   15.0841 C   0  0  0  0  0  0  0  0  0  0  0  0
  1  3  4  0
  1 24  4  0
  2  6  4  0
  2 15  4  0
  3  5  4  0
  3  6  4  0
  4 21  4  0
  4 29  4  0
  5 15  4  0
  5 28  1  0
  6 16  4  0
  7 18  4  0
  7 26  4  0
  8 18  1  0
  8 19  4  0
  8 22  4  0
  9 12  4  0
  9 19  4  0
 10 12  4  0
 10 22  4  0
 11 20  4  0
 11 21  4  0
 12 23  1  0
 13 20  4  0
 13 29  4  0
 14 17  4  0
 14 28  4  0
 15 25  2  0
 16 27  4  0
 17 18  4  0
 20 27  1  0
 24 27  4  0
 26 28  4  0
M  END
$$$$

 Created by Python create_sdf_string function

 29 33  0  0  0  0  0  0  0  0999 V2000
    8.8270   -7.0288   18.4251 C   0  0  0  0  0  0  0  0  0  0  0  0
    9.1576   -4.6236   15.8860 O   0  0  0  0  0  0  0  0  0  0  0  0
    9.1509   -5.9108   17.7177 C   0  0  0  0  0  0  0  0  0  0  0  0
    3.6373   -9.5349   16.0582 N   0  0  0  0  0  0  0  0  0  0  0  0
    9.9275   -4.8001   18.0438 N   0  0  0  0  0  0  0  0  0  0  0  0
    8.5908   -5.7425   16.4412 C   0  0  0  0  0  0  0  0  0  0  0  0
   10.5993   -4.8981   21.6068 C   0  0  0  0  0  0  0  0  0  0  0  0
   10.4258   -3.0106   23.0998 C   0  0  0  0  0  0  0  0  0  0  0  0
   10.2148   -3.4364   25.4200 C   0  0  0  0  0  0  0  0  0  0  0  0
    9.7853   -1.1840   24.4927 C   0  0  0  0  0  0  0  0  0  0  0  0
    5.0276   -8.5227   17.5352 C   0  0  0  0  0  0  0  0  0  0  0  0
    9.8187   -2.0895   25.5800 C   0  0  0  0  0  0  0  0  0  0  0  0
    5.6473   -8.7216   15.3158 C   0  0  0  0  0  0  0  0  0  0  0  0
   10.7581   -3.1233   19.4720 N   0  0  0  0  0  0  0  0  0  0  0  0
    9.9571   -4.0573   16.8866 C   0  0  0  0  0  0  0  0  0  0  0  0
    7.6213   -6.5618   16.0087 C   0  0  0  0  0  0  0  0  0  0  0  0
   10.8583   -2.6527   20.7222 C   0  0  0  0  0  0  0  0  0  0  0  0
   10.6412   -3.5089   21.7936 C   0  0  0  0  0  0  0  0  0  0  0  0
   10.4972   -3.8968   24.1589 C   0  0  0  0  0  0  0  0  0  0  0  0
    5.9260   -8.2736   16.5517 C   0  0  0  0  0  0  0  0  0  0  0  0
    3.8816   -9.1166   17.2493 C   0  0  0  0  0  0  0  0  0  0  0  0
   10.1297   -1.6575   23.2324 C   0  0  0  0  0  0  0  0  0  0  0  0
    9.4684   -1.6929   26.7263 F   0  0  0  0  0  0  0  0  0  0  0  0
    7.7963   -7.7906   17.9837 C   0  0  0  0  0  0  0  0  0  0  0  0
   10.5884   -3.0725   16.7902 O   0  0  0  0  0  0  0  0  0  0  0  0
   10.4323   -5.3494   20.3516 C   0  0  0  0  0  0  0  0  0  0  0  0
    7.1156   -7.5454   16.8218 C   0  0  0  0  0  0  0  0  0  0  0  0
   10.3885   -4.4388   19.2773 C   0  0  0  0  0  0  0  0  0  0  0  0
    4.5160   -9.3822   15.0841 C   0  0  0  0  0  0  0  0  0  0  0  0
  1  3  4  0
  1 24  4  0
  2  6  4  0
  2 15  4  0
  3  5  4  0
  3  6  4  0
  4 21  4  0
  4 29  4  0
  5 15  4  0
  5 28  1  0
  6 16  4  0
  7 18  4  0
  7 26  4  0
  8 18  1  0
  8 19  4  0
  8 22  4  0
  9 12  4  0
  9 19  4  0
 10 12  4  0
 10 22  4  0
 11 20  4  0
 11 21  4  0
 12 23  1  0
 13 20  4  0
 13 29  4  0
 14 17  4  0
 14 28  4  0
 15 25  2  0
 16 27  4  0
 17 18  4  0
 20 27  1  0
 24 27  4  0
 26 28  4  0
M  END
$$$$

 Created by Python create_sdf_string function

 29 33  0  0  0  0  0  0  0  0999 V2000
    8.8270   -7.0288   18.4251 C   0  0  0  0  0  0  0  0  0  0  0  0
    9.1576   -4.6236   15.8860 O   0  0  0  0  0  0  0  0  0  0  0  0
    9.1509   -5.9108   17.7177 C   0  0  0  0  0  0  0  0  0  0  0  0
    3.6373   -9.5349   16.0582 N   0  0  0  0  0  0  0  0  0  0  0  0
    9.9275   -4.8001   18.0438 N   0  0  0  0  0  0  0  0  0  0  0  0
    8.5908   -5.7425   16.4412 C   0  0  0  0  0  0  0  0  0  0  0  0
   10.5993   -4.8981   21.6068 C   0  0  0  0  0  0  0  0  0  0  0  0
   10.4258   -3.0106   23.0998 C   0  0  0  0  0  0  0  0  0  0  0  0
   10.2148   -3.4364   25.4200 C   0  0  0  0  0  0  0  0  0  0  0  0
    9.7853   -1.1840   24.4927 C   0  0  0  0  0  0  0  0  0  0  0  0
    5.0276   -8.5227   17.5352 C   0  0  0  0  0  0  0  0  0  0  0  0
    9.8187   -2.0895   25.5800 C   0  0  0  0  0  0  0  0  0  0  0  0
    5.6473   -8.7216   15.3158 C   0  0  0  0  0  0  0  0  0  0  0  0
   10.7581   -3.1233   19.4720 N   0  0  0  0  0  0  0  0  0  0  0  0
    9.9571   -4.0573   16.8866 C   0  0  0  0  0  0  0  0  0  0  0  0
    7.6213   -6.5618   16.0087 C   0  0  0  0  0  0  0  0  0  0  0  0
   10.8583   -2.6527   20.7222 C   0  0  0  0  0  0  0  0  0  0  0  0
   10.6412   -3.5089   21.7936 C   0  0  0  0  0  0  0  0  0  0  0  0
   10.4972   -3.8968   24.1589 C   0  0  0  0  0  0  0  0  0  0  0  0
    5.9260   -8.2736   16.5517 C   0  0  0  0  0  0  0  0  0  0  0  0
    3.8816   -9.1166   17.2493 C   0  0  0  0  0  0  0  0  0  0  0  0
   10.1297   -1.6575   23.2324 C   0  0  0  0  0  0  0  0  0  0  0  0
    9.4684   -1.6929   26.7263 F   0  0  0  0  0  0  0  0  0  0  0  0
    7.7963   -7.7906   17.9837 C   0  0  0  0  0  0  0  0  0  0  0  0
   10.5884   -3.0725   16.7902 O   0  0  0  0  0  0  0  0  0  0  0  0
   10.4323   -5.3494   20.3516 C   0  0  0  0  0  0  0  0  0  0  0  0
    7.1156   -7.5454   16.8218 C   0  0  0  0  0  0  0  0  0  0  0  0
   10.3885   -4.4388   19.2773 C   0  0  0  0  0  0  0  0  0  0  0  0
    4.5160   -9.3822   15.0841 C   0  0  0  0  0  0  0  0  0  0  0  0
  1  3  4  0
  1 24  4  0
  2  6  4  0
  2 15  4  0
  3  5  4  0
  3  6  4  0
  4 21  4  0
  4 29  4  0
  5 15  4  0
  5 28  1  0
  6 16  4  0
  7 18  4  0
  7 26  4  0
  8 18  1  0
  8 19  4  0
  8 22  4  0
  9 12  4  0
  9 19  4  0
 10 12  4  0
 10 22  4  0
 11 20  4  0
 11 21  4  0
 12 23  1  0
 13 20  4  0
 13 29  4  0
 14 17  4  0
 14 28  4  0
 15 25  2  0
 16 27  4  0
 17 18  4  0
 20 27  1  0
 24 27  4  0
 26 28  4  0
M  END
$$$$

 Created by Python create_sdf_string function

 29 33  0  0  0  0  0  0  0  0999 V2000
    8.8270   -7.0288   18.4251 C   0  0  0  0  0  0  0  0  0  0  0  0
    9.1576   -4.6236   15.8860 O   0  0  0  0  0  0  0  0  0  0  0  0
    9.1509   -5.9108   17.7177 C   0  0  0  0  0  0  0  0  0  0  0  0
    3.6373   -9.5349   16.0582 N   0  0  0  0  0  0  0  0  0  0  0  0
    9.9275   -4.8001   18.0438 N   0  0  0  0  0  0  0  0  0  0  0  0
    8.5908   -5.7425   16.4412 C   0  0  0  0  0  0  0  0  0  0  0  0
   10.5993   -4.8981   21.6068 C   0  0  0  0  0  0  0  0  0  0  0  0
   10.4258   -3.0106   23.0998 C   0  0  0  0  0  0  0  0  0  0  0  0
   10.2148   -3.4364   25.4200 C   0  0  0  0  0  0  0  0  0  0  0  0
    9.7853   -1.1840   24.4927 C   0  0  0  0  0  0  0  0  0  0  0  0
    5.0276   -8.5227   17.5352 C   0  0  0  0  0  0  0  0  0  0  0  0
    9.8187   -2.0895   25.5800 C   0  0  0  0  0  0  0  0  0  0  0  0
    5.6473   -8.7216   15.3158 C   0  0  0  0  0  0  0  0  0  0  0  0
   10.7581   -3.1233   19.4720 N   0  0  0  0  0  0  0  0  0  0  0  0
    9.9571   -4.0573   16.8866 C   0  0  0  0  0  0  0  0  0  0  0  0
    7.6213   -6.5618   16.0087 C   0  0  0  0  0  0  0  0  0  0  0  0
   10.8583   -2.6527   20.7222 C   0  0  0  0  0  0  0  0  0  0  0  0
   10.6412   -3.5089   21.7936 C   0  0  0  0  0  0  0  0  0  0  0  0
   10.4972   -3.8968   24.1589 C   0  0  0  0  0  0  0  0  0  0  0  0
    5.9260   -8.2736   16.5517 C   0  0  0  0  0  0  0  0  0  0  0  0
    3.8816   -9.1166   17.2493 C   0  0  0  0  0  0  0  0  0  0  0  0
   10.1297   -1.6575   23.2324 C   0  0  0  0  0  0  0  0  0  0  0  0
    9.4684   -1.6929   26.7263 F   0  0  0  0  0  0  0  0  0  0  0  0
    7.7963   -7.7906   17.9837 C   0  0  0  0  0  0  0  0  0  0  0  0
   10.5884   -3.0725   16.7902 O   0  0  0  0  0  0  0  0  0  0  0  0
   10.4323   -5.3494   20.3516 C   0  0  0  0  0  0  0  0  0  0  0  0
    7.1156   -7.5454   16.8218 C   0  0  0  0  0  0  0  0  0  0  0  0
   10.3885   -4.4388   19.2773 C   0  0  0  0  0  0  0  0  0  0  0  0
    4.5160   -9.3822   15.0841 C   0  0  0  0  0  0  0  0  0  0  0  0
  1  3  4  0
  1 24  4  0
  2  6  4  0
  2 15  4  0
  3  5  4  0
  3  6  4  0
  4 21  4  0
  4 29  4  0
  5 15  4  0
  5 28  1  0
  6 16  4  0
  7 18  4  0
  7 26  4  0
  8 18  1  0
  8 19  4  0
  8 22  4  0
  9 12  4  0
  9 19  4  0
 10 12  4  0
 10 22  4  0
 11 20  4  0
 11 21  4  0
 12 23  1  0
 13 20  4  0
 13 29  4  0
 14 17  4  0
 14 28  4  0
 15 25  2  0
 16 27  4  0
 17 18  4  0
 20 27  1  0
 24 27  4  0
 26 28  4  0
M  END
$$$$

 Created by Python create_sdf_string function

 29 33  0  0  0  0  0  0  0  0999 V2000
    8.8270   -7.0288   18.4251 C   0  0  0  0  0  0  0  0  0  0  0  0
    9.1576   -4.6236   15.8860 O   0  0  0  0  0  0  0  0  0  0  0  0
    9.1509   -5.9108   17.7177 C   0  0  0  0  0  0  0  0  0  0  0  0
    3.6373   -9.5349   16.0582 N   0  0  0  0  0  0  0  0  0  0  0  0
    9.9275   -4.8001   18.0438 N   0  0  0  0  0  0  0  0  0  0  0  0
    8.5908   -5.7425   16.4412 C   0  0  0  0  0  0  0  0  0  0  0  0
   10.5993   -4.8981   21.6068 C   0  0  0  0  0  0  0  0  0  0  0  0
   10.4258   -3.0106   23.0998 C   0  0  0  0  0  0  0  0  0  0  0  0
   10.2148   -3.4364   25.4200 C   0  0  0  0  0  0  0  0  0  0  0  0
    9.7853   -1.1840   24.4927 C   0  0  0  0  0  0  0  0  0  0  0  0
    5.0276   -8.5227   17.5352 C   0  0  0  0  0  0  0  0  0  0  0  0
    9.8187   -2.0895   25.5800 C   0  0  0  0  0  0  0  0  0  0  0  0
    5.6473   -8.7216   15.3158 C   0  0  0  0  0  0  0  0  0  0  0  0
   10.7581   -3.1233   19.4720 N   0  0  0  0  0  0  0  0  0  0  0  0
    9.9571   -4.0573   16.8866 C   0  0  0  0  0  0  0  0  0  0  0  0
    7.6213   -6.5618   16.0087 C   0  0  0  0  0  0  0  0  0  0  0  0
   10.8583   -2.6527   20.7222 C   0  0  0  0  0  0  0  0  0  0  0  0
   10.6412   -3.5089   21.7936 C   0  0  0  0  0  0  0  0  0  0  0  0
   10.4972   -3.8968   24.1589 C   0  0  0  0  0  0  0  0  0  0  0  0
    5.9260   -8.2736   16.5517 C   0  0  0  0  0  0  0  0  0  0  0  0
    3.8816   -9.1166   17.2493 C   0  0  0  0  0  0  0  0  0  0  0  0
   10.1297   -1.6575   23.2324 C   0  0  0  0  0  0  0  0  0  0  0  0
    9.4684   -1.6929   26.7263 F   0  0  0  0  0  0  0  0  0  0  0  0
    7.7963   -7.7906   17.9837 C   0  0  0  0  0  0  0  0  0  0  0  0
   10.5884   -3.0725   16.7902 O   0  0  0  0  0  0  0  0  0  0  0  0
   10.4323   -5.3494   20.3516 C   0  0  0  0  0  0  0  0  0  0  0  0
    7.1156   -7.5454   16.8218 C   0  0  0  0  0  0  0  0  0  0  0  0
   10.3885   -4.4388   19.2773 C   0  0  0  0  0  0  0  0  0  0  0  0
    4.5160   -9.3822   15.0841 C   0  0  0  0  0  0  0  0  0  0  0  0
  1  3  4  0
  1 24  4  0
  2  6  4  0
  2 15  4  0
  3  5  4  0
  3  6  4  0
  4 21  4  0
  4 29  4  0
  5 15  4  0
  5 28  1  0
  6 16  4  0
  7 18  4  0
  7 26  4  0
  8 18  1  0
  8 19  4  0
  8 22  4  0
  9 12  4  0
  9 19  4  0
 10 12  4  0
 10 22  4  0
 11 20  4  0
 11 21  4  0
 12 23  1  0
 13 20  4  0
 13 29  4  0
 14 17  4  0
 14 28  4  0
 15 25  2  0
 16 27  4  0
 17 18  4  0
 20 27  1  0
 24 27  4  0
 26 28  4  0
M  END
$$$$

 Created by Python create_sdf_string function

 29 33  0  0  0  0  0  0  0  0999 V2000
    8.8270   -7.0288   18.4251 C   0  0  0  0  0  0  0  0  0  0  0  0
    9.1576   -4.6236   15.8860 O   0  0  0  0  0  0  0  0  0  0  0  0
    9.1509   -5.9108   17.7177 C   0  0  0  0  0  0  0  0  0  0  0  0
    3.6373   -9.5349   16.0582 N   0  0  0  0  0  0  0  0  0  0  0  0
    9.9275   -4.8001   18.0438 N   0  0  0  0  0  0  0  0  0  0  0  0
    8.5908   -5.7425   16.4412 C   0  0  0  0  0  0  0  0  0  0  0  0
   10.5993   -4.8981   21.6068 C   0  0  0  0  0  0  0  0  0  0  0  0
   10.4258   -3.0106   23.0998 C   0  0  0  0  0  0  0  0  0  0  0  0
   10.2148   -3.4364   25.4200 C   0  0  0  0  0  0  0  0  0  0  0  0
    9.7853   -1.1840   24.4927 C   0  0  0  0  0  0  0  0  0  0  0  0
    5.0276   -8.5227   17.5352 C   0  0  0  0  0  0  0  0  0  0  0  0
    9.8187   -2.0895   25.5800 C   0  0  0  0  0  0  0  0  0  0  0  0
    5.6473   -8.7216   15.3158 C   0  0  0  0  0  0  0  0  0  0  0  0
   10.7581   -3.1233   19.4720 N   0  0  0  0  0  0  0  0  0  0  0  0
    9.9571   -4.0573   16.8866 C   0  0  0  0  0  0  0  0  0  0  0  0
    7.6213   -6.5618   16.0087 C   0  0  0  0  0  0  0  0  0  0  0  0
   10.8583   -2.6527   20.7222 C   0  0  0  0  0  0  0  0  0  0  0  0
   10.6412   -3.5089   21.7936 C   0  0  0  0  0  0  0  0  0  0  0  0
   10.4972   -3.8968   24.1589 C   0  0  0  0  0  0  0  0  0  0  0  0
    5.9260   -8.2736   16.5517 C   0  0  0  0  0  0  0  0  0  0  0  0
    3.8816   -9.1166   17.2493 C   0  0  0  0  0  0  0  0  0  0  0  0
   10.1297   -1.6575   23.2324 C   0  0  0  0  0  0  0  0  0  0  0  0
    9.4684   -1.6929   26.7263 F   0  0  0  0  0  0  0  0  0  0  0  0
    7.7963   -7.7906   17.9837 C   0  0  0  0  0  0  0  0  0  0  0  0
   10.5884   -3.0725   16.7902 O   0  0  0  0  0  0  0  0  0  0  0  0
   10.4323   -5.3494   20.3516 C   0  0  0  0  0  0  0  0  0  0  0  0
    7.1156   -7.5454   16.8218 C   0  0  0  0  0  0  0  0  0  0  0  0
   10.3885   -4.4388   19.2773 C   0  0  0  0  0  0  0  0  0  0  0  0
    4.5160   -9.3822   15.0841 C   0  0  0  0  0  0  0  0  0  0  0  0
  1  3  4  0
  1 24  4  0
  2  6  4  0
  2 15  4  0
  3  5  4  0
  3  6  4  0
  4 21  4  0
  4 29  4  0
  5 15  4  0
  5 28  1  0
  6 16  4  0
  7 18  4  0
  7 26  4  0
  8 18  1  0
  8 19  4  0
  8 22  4  0
  9 12  4  0
  9 19  4  0
 10 12  4  0
 10 22  4  0
 11 20  4  0
 11 21  4  0
 12 23  1  0
 13 20  4  0
 13 29  4  0
 14 17  4  0
 14 28  4  0
 15 25  2  0
 16 27  4  0
 17 18  4  0
 20 27  1  0
 24 27  4  0
 26 28  4  0
M  END
$$$$

 Created by Python create_sdf_string function

 29 33  0  0  0  0  0  0  0  0999 V2000
    8.8270   -7.0288   18.4251 C   0  0  0  0  0  0  0  0  0  0  0  0
    9.1576   -4.6236   15.8860 O   0  0  0  0  0  0  0  0  0  0  0  0
    9.1509   -5.9108   17.7177 C   0  0  0  0  0  0  0  0  0  0  0  0
    3.6373   -9.5349   16.0582 N   0  0  0  0  0  0  0  0  0  0  0  0
    9.9275   -4.8001   18.0438 N   0  0  0  0  0  0  0  0  0  0  0  0
    8.5908   -5.7425   16.4412 C   0  0  0  0  0  0  0  0  0  0  0  0
   10.5993   -4.8981   21.6068 C   0  0  0  0  0  0  0  0  0  0  0  0
   10.4258   -3.0106   23.0998 C   0  0  0  0  0  0  0  0  0  0  0  0
   10.2148   -3.4364   25.4200 C   0  0  0  0  0  0  0  0  0  0  0  0
    9.7853   -1.1840   24.4927 C   0  0  0  0  0  0  0  0  0  0  0  0
    5.0276   -8.5227   17.5352 C   0  0  0  0  0  0  0  0  0  0  0  0
    9.8187   -2.0895   25.5800 C   0  0  0  0  0  0  0  0  0  0  0  0
    5.6473   -8.7216   15.3158 C   0  0  0  0  0  0  0  0  0  0  0  0
   10.7581   -3.1233   19.4720 N   0  0  0  0  0  0  0  0  0  0  0  0
    9.9571   -4.0573   16.8866 C   0  0  0  0  0  0  0  0  0  0  0  0
    7.6213   -6.5618   16.0087 C   0  0  0  0  0  0  0  0  0  0  0  0
   10.8583   -2.6527   20.7222 C   0  0  0  0  0  0  0  0  0  0  0  0
   10.6412   -3.5089   21.7936 C   0  0  0  0  0  0  0  0  0  0  0  0
   10.4972   -3.8968   24.1589 C   0  0  0  0  0  0  0  0  0  0  0  0
    5.9260   -8.2736   16.5517 C   0  0  0  0  0  0  0  0  0  0  0  0
    3.8816   -9.1166   17.2493 C   0  0  0  0  0  0  0  0  0  0  0  0
   10.1297   -1.6575   23.2324 C   0  0  0  0  0  0  0  0  0  0  0  0
    9.4684   -1.6929   26.7263 F   0  0  0  0  0  0  0  0  0  0  0  0
    7.7963   -7.7906   17.9837 C   0  0  0  0  0  0  0  0  0  0  0  0
   10.5884   -3.0725   16.7902 O   0  0  0  0  0  0  0  0  0  0  0  0
   10.4323   -5.3494   20.3516 C   0  0  0  0  0  0  0  0  0  0  0  0
    7.1156   -7.5454   16.8218 C   0  0  0  0  0  0  0  0  0  0  0  0
   10.3885   -4.4388   19.2773 C   0  0  0  0  0  0  0  0  0  0  0  0
    4.5160   -9.3822   15.0841 C   0  0  0  0  0  0  0  0  0  0  0  0
  1  3  4  0
  1 24  4  0
  2  6  4  0
  2 15  4  0
  3  5  4  0
  3  6  4  0
  4 21  4  0
  4 29  4  0
  5 15  4  0
  5 28  1  0
  6 16  4  0
  7 18  4  0
  7 26  4  0
  8 18  1  0
  8 19  4  0
  8 22  4  0
  9 12  4  0
  9 19  4  0
 10 12  4  0
 10 22  4  0
 11 20  4  0
 11 21  4  0
 12 23  1  0
 13 20  4  0
 13 29  4  0
 14 17  4  0
 14 28  4  0
 15 25  2  0
 16 27  4  0
 17 18  4  0
 20 27  1  0
 24 27  4  0
 26 28  4  0
M  END
$$$$

 Created by Python create_sdf_string function

 29 33  0  0  0  0  0  0  0  0999 V2000
    8.8270   -7.0288   18.4251 C   0  0  0  0  0  0  0  0  0  0  0  0
    9.1576   -4.6236   15.8860 O   0  0  0  0  0  0  0  0  0  0  0  0
    9.1509   -5.9108   17.7177 C   0  0  0  0  0  0  0  0  0  0  0  0
    3.6373   -9.5349   16.0582 N   0  0  0  0  0  0  0  0  0  0  0  0
    9.9275   -4.8001   18.0438 N   0  0  0  0  0  0  0  0  0  0  0  0
    8.5908   -5.7425   16.4412 C   0  0  0  0  0  0  0  0  0  0  0  0
   10.5993   -4.8981   21.6068 C   0  0  0  0  0  0  0  0  0  0  0  0
   10.4258   -3.0106   23.0998 C   0  0  0  0  0  0  0  0  0  0  0  0
   10.2148   -3.4364   25.4200 C   0  0  0  0  0  0  0  0  0  0  0  0
    9.7853   -1.1840   24.4927 C   0  0  0  0  0  0  0  0  0  0  0  0
    5.0276   -8.5227   17.5352 C   0  0  0  0  0  0  0  0  0  0  0  0
    9.8187   -2.0895   25.5800 C   0  0  0  0  0  0  0  0  0  0  0  0
    5.6473   -8.7216   15.3158 C   0  0  0  0  0  0  0  0  0  0  0  0
   10.7581   -3.1233   19.4720 N   0  0  0  0  0  0  0  0  0  0  0  0
    9.9571   -4.0573   16.8866 C   0  0  0  0  0  0  0  0  0  0  0  0
    7.6213   -6.5618   16.0087 C   0  0  0  0  0  0  0  0  0  0  0  0
   10.8583   -2.6527   20.7222 C   0  0  0  0  0  0  0  0  0  0  0  0
   10.6412   -3.5089   21.7936 C   0  0  0  0  0  0  0  0  0  0  0  0
   10.4972   -3.8968   24.1589 C   0  0  0  0  0  0  0  0  0  0  0  0
    5.9260   -8.2736   16.5517 C   0  0  0  0  0  0  0  0  0  0  0  0
    3.8816   -9.1166   17.2493 C   0  0  0  0  0  0  0  0  0  0  0  0
   10.1297   -1.6575   23.2324 C   0  0  0  0  0  0  0  0  0  0  0  0
    9.4684   -1.6929   26.7263 F   0  0  0  0  0  0  0  0  0  0  0  0
    7.7963   -7.7906   17.9837 C   0  0  0  0  0  0  0  0  0  0  0  0
   10.5884   -3.0725   16.7902 O   0  0  0  0  0  0  0  0  0  0  0  0
   10.4323   -5.3494   20.3516 C   0  0  0  0  0  0  0  0  0  0  0  0
    7.1156   -7.5454   16.8218 C   0  0  0  0  0  0  0  0  0  0  0  0
   10.3885   -4.4388   19.2773 C   0  0  0  0  0  0  0  0  0  0  0  0
    4.5160   -9.3822   15.0841 C   0  0  0  0  0  0  0  0  0  0  0  0
  1  3  4  0
  1 24  4  0
  2  6  4  0
  2 15  4  0
  3  5  4  0
  3  6  4  0
  4 21  4  0
  4 29  4  0
  5 15  4  0
  5 28  1  0
  6 16  4  0
  7 18  4  0
  7 26  4  0
  8 18  1  0
  8 19  4  0
  8 22  4  0
  9 12  4  0
  9 19  4  0
 10 12  4  0
 10 22  4  0
 11 20  4  0
 11 21  4  0
 12 23  1  0
 13 20  4  0
 13 29  4  0
 14 17  4  0
 14 28  4  0
 15 25  2  0
 16 27  4  0
 17 18  4  0
 20 27  1  0
 24 27  4  0
 26 28  4  0
M  END
$$$$

 Created by Python create_sdf_string function

 29 33  0  0  0  0  0  0  0  0999 V2000
    8.8270   -7.0288   18.4251 C   0  0  0  0  0  0  0  0  0  0  0  0
    9.1576   -4.6236   15.8860 O   0  0  0  0  0  0  0  0  0  0  0  0
    9.1509   -5.9108   17.7177 C   0  0  0  0  0  0  0  0  0  0  0  0
    3.6373   -9.5349   16.0582 N   0  0  0  0  0  0  0  0  0  0  0  0
    9.9275   -4.8001   18.0438 N   0  0  0  0  0  0  0  0  0  0  0  0
    8.5908   -5.7425   16.4412 C   0  0  0  0  0  0  0  0  0  0  0  0
   10.5993   -4.8981   21.6068 C   0  0  0  0  0  0  0  0  0  0  0  0
   10.4258   -3.0106   23.0998 C   0  0  0  0  0  0  0  0  0  0  0  0
   10.2148   -3.4364   25.4200 C   0  0  0  0  0  0  0  0  0  0  0  0
    9.7853   -1.1840   24.4927 C   0  0  0  0  0  0  0  0  0  0  0  0
    5.0276   -8.5227   17.5352 C   0  0  0  0  0  0  0  0  0  0  0  0
    9.8187   -2.0895   25.5800 C   0  0  0  0  0  0  0  0  0  0  0  0
    5.6473   -8.7216   15.3158 C   0  0  0  0  0  0  0  0  0  0  0  0
   10.7581   -3.1233   19.4720 N   0  0  0  0  0  0  0  0  0  0  0  0
    9.9571   -4.0573   16.8866 C   0  0  0  0  0  0  0  0  0  0  0  0
    7.6213   -6.5618   16.0087 C   0  0  0  0  0  0  0  0  0  0  0  0
   10.8583   -2.6527   20.7222 C   0  0  0  0  0  0  0  0  0  0  0  0
   10.6412   -3.5089   21.7936 C   0  0  0  0  0  0  0  0  0  0  0  0
   10.4972   -3.8968   24.1589 C   0  0  0  0  0  0  0  0  0  0  0  0
    5.9260   -8.2736   16.5517 C   0  0  0  0  0  0  0  0  0  0  0  0
    3.8816   -9.1166   17.2493 C   0  0  0  0  0  0  0  0  0  0  0  0
   10.1297   -1.6575   23.2324 C   0  0  0  0  0  0  0  0  0  0  0  0
    9.4684   -1.6929   26.7263 F   0  0  0  0  0  0  0  0  0  0  0  0
    7.7963   -7.7906   17.9837 C   0  0  0  0  0  0  0  0  0  0  0  0
   10.5884   -3.0725   16.7902 O   0  0  0  0  0  0  0  0  0  0  0  0
   10.4323   -5.3494   20.3516 C   0  0  0  0  0  0  0  0  0  0  0  0
    7.1156   -7.5454   16.8218 C   0  0  0  0  0  0  0  0  0  0  0  0
   10.3885   -4.4388   19.2773 C   0  0  0  0  0  0  0  0  0  0  0  0
    4.5160   -9.3822   15.0841 C   0  0  0  0  0  0  0  0  0  0  0  0
  1  3  4  0
  1 24  4  0
  2  6  4  0
  2 15  4  0
  3  5  4  0
  3  6  4  0
  4 21  4  0
  4 29  4  0
  5 15  4  0
  5 28  1  0
  6 16  4  0
  7 18  4  0
  7 26  4  0
  8 18  1  0
  8 19  4  0
  8 22  4  0
  9 12  4  0
  9 19  4  0
 10 12  4  0
 10 22  4  0
 11 20  4  0
 11 21  4  0
 12 23  1  0
 13 20  4  0
 13 29  4  0
 14 17  4  0
 14 28  4  0
 15 25  2  0
 16 27  4  0
 17 18  4  0
 20 27  1  0
 24 27  4  0
 26 28  4  0
M  END
$$$$

 Created by Python create_sdf_string function

 29 33  0  0  0  0  0  0  0  0999 V2000
    8.8270   -7.0288   18.4251 C   0  0  0  0  0  0  0  0  0  0  0  0
    9.1576   -4.6236   15.8860 O   0  0  0  0  0  0  0  0  0  0  0  0
    9.1509   -5.9108   17.7177 C   0  0  0  0  0  0  0  0  0  0  0  0
    3.6373   -9.5349   16.0582 N   0  0  0  0  0  0  0  0  0  0  0  0
    9.9275   -4.8001   18.0438 N   0  0  0  0  0  0  0  0  0  0  0  0
    8.5908   -5.7425   16.4412 C   0  0  0  0  0  0  0  0  0  0  0  0
   10.5993   -4.8981   21.6068 C   0  0  0  0  0  0  0  0  0  0  0  0
   10.4258   -3.0106   23.0998 C   0  0  0  0  0  0  0  0  0  0  0  0
   10.2148   -3.4364   25.4200 C   0  0  0  0  0  0  0  0  0  0  0  0
    9.7853   -1.1840   24.4927 C   0  0  0  0  0  0  0  0  0  0  0  0
    5.0276   -8.5227   17.5352 C   0  0  0  0  0  0  0  0  0  0  0  0
    9.8187   -2.0895   25.5800 C   0  0  0  0  0  0  0  0  0  0  0  0
    5.6473   -8.7216   15.3158 C   0  0  0  0  0  0  0  0  0  0  0  0
   10.7581   -3.1233   19.4720 N   0  0  0  0  0  0  0  0  0  0  0  0
    9.9571   -4.0573   16.8866 C   0  0  0  0  0  0  0  0  0  0  0  0
    7.6213   -6.5618   16.0087 C   0  0  0  0  0  0  0  0  0  0  0  0
   10.8583   -2.6527   20.7222 C   0  0  0  0  0  0  0  0  0  0  0  0
   10.6412   -3.5089   21.7936 C   0  0  0  0  0  0  0  0  0  0  0  0
   10.4972   -3.8968   24.1589 C   0  0  0  0  0  0  0  0  0  0  0  0
    5.9260   -8.2736   16.5517 C   0  0  0  0  0  0  0  0  0  0  0  0
    3.8816   -9.1166   17.2493 C   0  0  0  0  0  0  0  0  0  0  0  0
   10.1297   -1.6575   23.2324 C   0  0  0  0  0  0  0  0  0  0  0  0
    9.4684   -1.6929   26.7263 F   0  0  0  0  0  0  0  0  0  0  0  0
    7.7963   -7.7906   17.9837 C   0  0  0  0  0  0  0  0  0  0  0  0
   10.5884   -3.0725   16.7902 O   0  0  0  0  0  0  0  0  0  0  0  0
   10.4323   -5.3494   20.3516 C   0  0  0  0  0  0  0  0  0  0  0  0
    7.1156   -7.5454   16.8218 C   0  0  0  0  0  0  0  0  0  0  0  0
   10.3885   -4.4388   19.2773 C   0  0  0  0  0  0  0  0  0  0  0  0
    4.5160   -9.3822   15.0841 C   0  0  0  0  0  0  0  0  0  0  0  0
  1  3  4  0
  1 24  4  0
  2  6  4  0
  2 15  4  0
  3  5  4  0
  3  6  4  0
  4 21  4  0
  4 29  4  0
  5 15  4  0
  5 28  1  0
  6 16  4  0
  7 18  4  0
  7 26  4  0
  8 18  1  0
  8 19  4  0
  8 22  4  0
  9 12  4  0
  9 19  4  0
 10 12  4  0
 10 22  4  0
 11 20  4  0
 11 21  4  0
 12 23  1  0
 13 20  4  0
 13 29  4  0
 14 17  4  0
 14 28  4  0
 15 25  2  0
 16 27  4  0
 17 18  4  0
 20 27  1  0
 24 27  4  0
 26 28  4  0
M  END
$$$$

 Created by Python create_sdf_string function

 29 33  0  0  0  0  0  0  0  0999 V2000
    8.8270   -7.0288   18.4251 C   0  0  0  0  0  0  0  0  0  0  0  0
    9.1576   -4.6236   15.8860 O   0  0  0  0  0  0  0  0  0  0  0  0
    9.1509   -5.9108   17.7177 C   0  0  0  0  0  0  0  0  0  0  0  0
    3.6373   -9.5349   16.0582 N   0  0  0  0  0  0  0  0  0  0  0  0
    9.9275   -4.8001   18.0438 N   0  0  0  0  0  0  0  0  0  0  0  0
    8.5908   -5.7425   16.4412 C   0  0  0  0  0  0  0  0  0  0  0  0
   10.5993   -4.8981   21.6068 C   0  0  0  0  0  0  0  0  0  0  0  0
   10.4258   -3.0106   23.0998 C   0  0  0  0  0  0  0  0  0  0  0  0
   10.2148   -3.4364   25.4200 C   0  0  0  0  0  0  0  0  0  0  0  0
    9.7853   -1.1840   24.4927 C   0  0  0  0  0  0  0  0  0  0  0  0
    5.0276   -8.5227   17.5352 C   0  0  0  0  0  0  0  0  0  0  0  0
    9.8187   -2.0895   25.5800 C   0  0  0  0  0  0  0  0  0  0  0  0
    5.6473   -8.7216   15.3158 C   0  0  0  0  0  0  0  0  0  0  0  0
   10.7581   -3.1233   19.4720 N   0  0  0  0  0  0  0  0  0  0  0  0
    9.9571   -4.0573   16.8866 C   0  0  0  0  0  0  0  0  0  0  0  0
    7.6213   -6.5618   16.0087 C   0  0  0  0  0  0  0  0  0  0  0  0
   10.8583   -2.6527   20.7222 C   0  0  0  0  0  0  0  0  0  0  0  0
   10.6412   -3.5089   21.7936 C   0  0  0  0  0  0  0  0  0  0  0  0
   10.4972   -3.8968   24.1589 C   0  0  0  0  0  0  0  0  0  0  0  0
    5.9260   -8.2736   16.5517 C   0  0  0  0  0  0  0  0  0  0  0  0
    3.8816   -9.1166   17.2493 C   0  0  0  0  0  0  0  0  0  0  0  0
   10.1297   -1.6575   23.2324 C   0  0  0  0  0  0  0  0  0  0  0  0
    9.4684   -1.6929   26.7263 F   0  0  0  0  0  0  0  0  0  0  0  0
    7.7963   -7.7906   17.9837 C   0  0  0  0  0  0  0  0  0  0  0  0
   10.5884   -3.0725   16.7902 O   0  0  0  0  0  0  0  0  0  0  0  0
   10.4323   -5.3494   20.3516 C   0  0  0  0  0  0  0  0  0  0  0  0
    7.1156   -7.5454   16.8218 C   0  0  0  0  0  0  0  0  0  0  0  0
   10.3885   -4.4388   19.2773 C   0  0  0  0  0  0  0  0  0  0  0  0
    4.5160   -9.3822   15.0841 C   0  0  0  0  0  0  0  0  0  0  0  0
  1  3  4  0
  1 24  4  0
  2  6  4  0
  2 15  4  0
  3  5  4  0
  3  6  4  0
  4 21  4  0
  4 29  4  0
  5 15  4  0
  5 28  1  0
  6 16  4  0
  7 18  4  0
  7 26  4  0
  8 18  1  0
  8 19  4  0
  8 22  4  0
  9 12  4  0
  9 19  4  0
 10 12  4  0
 10 22  4  0
 11 20  4  0
 11 21  4  0
 12 23  1  0
 13 20  4  0
 13 29  4  0
 14 17  4  0
 14 28  4  0
 15 25  2  0
 16 27  4  0
 17 18  4  0
 20 27  1  0
 24 27  4  0
 26 28  4  0
M  END
$$$$

 Created by Python create_sdf_string function

 29 33  0  0  0  0  0  0  0  0999 V2000
    8.8270   -7.0288   18.4251 C   0  0  0  0  0  0  0  0  0  0  0  0
    9.1576   -4.6236   15.8860 O   0  0  0  0  0  0  0  0  0  0  0  0
    9.1509   -5.9108   17.7177 C   0  0  0  0  0  0  0  0  0  0  0  0
    3.6373   -9.5349   16.0582 N   0  0  0  0  0  0  0  0  0  0  0  0
    9.9275   -4.8001   18.0438 N   0  0  0  0  0  0  0  0  0  0  0  0
    8.5908   -5.7425   16.4412 C   0  0  0  0  0  0  0  0  0  0  0  0
   10.5993   -4.8981   21.6068 C   0  0  0  0  0  0  0  0  0  0  0  0
   10.4258   -3.0106   23.0998 C   0  0  0  0  0  0  0  0  0  0  0  0
   10.2148   -3.4364   25.4200 C   0  0  0  0  0  0  0  0  0  0  0  0
    9.7853   -1.1840   24.4927 C   0  0  0  0  0  0  0  0  0  0  0  0
    5.0276   -8.5227   17.5352 C   0  0  0  0  0  0  0  0  0  0  0  0
    9.8187   -2.0895   25.5800 C   0  0  0  0  0  0  0  0  0  0  0  0
    5.6473   -8.7216   15.3158 C   0  0  0  0  0  0  0  0  0  0  0  0
   10.7581   -3.1233   19.4720 N   0  0  0  0  0  0  0  0  0  0  0  0
    9.9571   -4.0573   16.8866 C   0  0  0  0  0  0  0  0  0  0  0  0
    7.6213   -6.5618   16.0087 C   0  0  0  0  0  0  0  0  0  0  0  0
   10.8583   -2.6527   20.7222 C   0  0  0  0  0  0  0  0  0  0  0  0
   10.6412   -3.5089   21.7936 C   0  0  0  0  0  0  0  0  0  0  0  0
   10.4972   -3.8968   24.1589 C   0  0  0  0  0  0  0  0  0  0  0  0
    5.9260   -8.2736   16.5517 C   0  0  0  0  0  0  0  0  0  0  0  0
    3.8816   -9.1166   17.2493 C   0  0  0  0  0  0  0  0  0  0  0  0
   10.1297   -1.6575   23.2324 C   0  0  0  0  0  0  0  0  0  0  0  0
    9.4684   -1.6929   26.7263 F   0  0  0  0  0  0  0  0  0  0  0  0
    7.7963   -7.7906   17.9837 C   0  0  0  0  0  0  0  0  0  0  0  0
   10.5884   -3.0725   16.7902 O   0  0  0  0  0  0  0  0  0  0  0  0
   10.4323   -5.3494   20.3516 C   0  0  0  0  0  0  0  0  0  0  0  0
    7.1156   -7.5454   16.8218 C   0  0  0  0  0  0  0  0  0  0  0  0
   10.3885   -4.4388   19.2773 C   0  0  0  0  0  0  0  0  0  0  0  0
    4.5160   -9.3822   15.0841 C   0  0  0  0  0  0  0  0  0  0  0  0
  1  3  4  0
  1 24  4  0
  2  6  4  0
  2 15  4  0
  3  5  4  0
  3  6  4  0
  4 21  4  0
  4 29  4  0
  5 15  4  0
  5 28  1  0
  6 16  4  0
  7 18  4  0
  7 26  4  0
  8 18  1  0
  8 19  4  0
  8 22  4  0
  9 12  4  0
  9 19  4  0
 10 12  4  0
 10 22  4  0
 11 20  4  0
 11 21  4  0
 12 23  1  0
 13 20  4  0
 13 29  4  0
 14 17  4  0
 14 28  4  0
 15 25  2  0
 16 27  4  0
 17 18  4  0
 20 27  1  0
 24 27  4  0
 26 28  4  0
M  END
$$$$

 Created by Python create_sdf_string function

 29 33  0  0  0  0  0  0  0  0999 V2000
    8.8270   -7.0288   18.4251 C   0  0  0  0  0  0  0  0  0  0  0  0
    9.1576   -4.6236   15.8860 O   0  0  0  0  0  0  0  0  0  0  0  0
    9.1509   -5.9108   17.7177 C   0  0  0  0  0  0  0  0  0  0  0  0
    3.6373   -9.5349   16.0582 N   0  0  0  0  0  0  0  0  0  0  0  0
    9.9275   -4.8001   18.0438 N   0  0  0  0  0  0  0  0  0  0  0  0
    8.5908   -5.7425   16.4412 C   0  0  0  0  0  0  0  0  0  0  0  0
   10.5993   -4.8981   21.6068 C   0  0  0  0  0  0  0  0  0  0  0  0
   10.4258   -3.0106   23.0998 C   0  0  0  0  0  0  0  0  0  0  0  0
   10.2148   -3.4364   25.4200 C   0  0  0  0  0  0  0  0  0  0  0  0
    9.7853   -1.1840   24.4927 C   0  0  0  0  0  0  0  0  0  0  0  0
    5.0276   -8.5227   17.5352 C   0  0  0  0  0  0  0  0  0  0  0  0
    9.8187   -2.0895   25.5800 C   0  0  0  0  0  0  0  0  0  0  0  0
    5.6473   -8.7216   15.3158 C   0  0  0  0  0  0  0  0  0  0  0  0
   10.7581   -3.1233   19.4720 N   0  0  0  0  0  0  0  0  0  0  0  0
    9.9571   -4.0573   16.8866 C   0  0  0  0  0  0  0  0  0  0  0  0
    7.6213   -6.5618   16.0087 C   0  0  0  0  0  0  0  0  0  0  0  0
   10.8583   -2.6527   20.7222 C   0  0  0  0  0  0  0  0  0  0  0  0
   10.6412   -3.5089   21.7936 C   0  0  0  0  0  0  0  0  0  0  0  0
   10.4972   -3.8968   24.1589 C   0  0  0  0  0  0  0  0  0  0  0  0
    5.9260   -8.2736   16.5517 C   0  0  0  0  0  0  0  0  0  0  0  0
    3.8816   -9.1166   17.2493 C   0  0  0  0  0  0  0  0  0  0  0  0
   10.1297   -1.6575   23.2324 C   0  0  0  0  0  0  0  0  0  0  0  0
    9.4684   -1.6929   26.7263 F   0  0  0  0  0  0  0  0  0  0  0  0
    7.7963   -7.7906   17.9837 C   0  0  0  0  0  0  0  0  0  0  0  0
   10.5884   -3.0725   16.7902 O   0  0  0  0  0  0  0  0  0  0  0  0
   10.4323   -5.3494   20.3516 C   0  0  0  0  0  0  0  0  0  0  0  0
    7.1156   -7.5454   16.8218 C   0  0  0  0  0  0  0  0  0  0  0  0
   10.3885   -4.4388   19.2773 C   0  0  0  0  0  0  0  0  0  0  0  0
    4.5160   -9.3822   15.0841 C   0  0  0  0  0  0  0  0  0  0  0  0
  1  3  4  0
  1 24  4  0
  2  6  4  0
  2 15  4  0
  3  5  4  0
  3  6  4  0
  4 21  4  0
  4 29  4  0
  5 15  4  0
  5 28  1  0
  6 16  4  0
  7 18  4  0
  7 26  4  0
  8 18  1  0
  8 19  4  0
  8 22  4  0
  9 12  4  0
  9 19  4  0
 10 12  4  0
 10 22  4  0
 11 20  4  0
 11 21  4  0
 12 23  1  0
 13 20  4  0
 13 29  4  0
 14 17  4  0
 14 28  4  0
 15 25  2  0
 16 27  4  0
 17 18  4  0
 20 27  1  0
 24 27  4  0
 26 28  4  0
M  END
$$$$

 Created by Python create_sdf_string function

 29 33  0  0  0  0  0  0  0  0999 V2000
    8.8270   -7.0288   18.4251 C   0  0  0  0  0  0  0  0  0  0  0  0
    9.1576   -4.6236   15.8860 O   0  0  0  0  0  0  0  0  0  0  0  0
    9.1509   -5.9108   17.7177 C   0  0  0  0  0  0  0  0  0  0  0  0
    3.6373   -9.5349   16.0582 N   0  0  0  0  0  0  0  0  0  0  0  0
    9.9275   -4.8001   18.0438 N   0  0  0  0  0  0  0  0  0  0  0  0
    8.5908   -5.7425   16.4412 C   0  0  0  0  0  0  0  0  0  0  0  0
   10.5993   -4.8981   21.6068 C   0  0  0  0  0  0  0  0  0  0  0  0
   10.4258   -3.0106   23.0998 C   0  0  0  0  0  0  0  0  0  0  0  0
   10.2148   -3.4364   25.4200 C   0  0  0  0  0  0  0  0  0  0  0  0
    9.7853   -1.1840   24.4927 C   0  0  0  0  0  0  0  0  0  0  0  0
    5.0276   -8.5227   17.5352 C   0  0  0  0  0  0  0  0  0  0  0  0
    9.8187   -2.0895   25.5800 C   0  0  0  0  0  0  0  0  0  0  0  0
    5.6473   -8.7216   15.3158 C   0  0  0  0  0  0  0  0  0  0  0  0
   10.7581   -3.1233   19.4720 N   0  0  0  0  0  0  0  0  0  0  0  0
    9.9571   -4.0573   16.8866 C   0  0  0  0  0  0  0  0  0  0  0  0
    7.6213   -6.5618   16.0087 C   0  0  0  0  0  0  0  0  0  0  0  0
   10.8583   -2.6527   20.7222 C   0  0  0  0  0  0  0  0  0  0  0  0
   10.6412   -3.5089   21.7936 C   0  0  0  0  0  0  0  0  0  0  0  0
   10.4972   -3.8968   24.1589 C   0  0  0  0  0  0  0  0  0  0  0  0
    5.9260   -8.2736   16.5517 C   0  0  0  0  0  0  0  0  0  0  0  0
    3.8816   -9.1166   17.2493 C   0  0  0  0  0  0  0  0  0  0  0  0
   10.1297   -1.6575   23.2324 C   0  0  0  0  0  0  0  0  0  0  0  0
    9.4684   -1.6929   26.7263 F   0  0  0  0  0  0  0  0  0  0  0  0
    7.7963   -7.7906   17.9837 C   0  0  0  0  0  0  0  0  0  0  0  0
   10.5884   -3.0725   16.7902 O   0  0  0  0  0  0  0  0  0  0  0  0
   10.4323   -5.3494   20.3516 C   0  0  0  0  0  0  0  0  0  0  0  0
    7.1156   -7.5454   16.8218 C   0  0  0  0  0  0  0  0  0  0  0  0
   10.3885   -4.4388   19.2773 C   0  0  0  0  0  0  0  0  0  0  0  0
    4.5160   -9.3822   15.0841 C   0  0  0  0  0  0  0  0  0  0  0  0
  1  3  4  0
  1 24  4  0
  2  6  4  0
  2 15  4  0
  3  5  4  0
  3  6  4  0
  4 21  4  0
  4 29  4  0
  5 15  4  0
  5 28  1  0
  6 16  4  0
  7 18  4  0
  7 26  4  0
  8 18  1  0
  8 19  4  0
  8 22  4  0
  9 12  4  0
  9 19  4  0
 10 12  4  0
 10 22  4  0
 11 20  4  0
 11 21  4  0
 12 23  1  0
 13 20  4  0
 13 29  4  0
 14 17  4  0
 14 28  4  0
 15 25  2  0
 16 27  4  0
 17 18  4  0
 20 27  1  0
 24 27  4  0
 26 28  4  0
M  END
$$$$

 Created by Python create_sdf_string function

 29 33  0  0  0  0  0  0  0  0999 V2000
    8.8270   -7.0288   18.4251 C   0  0  0  0  0  0  0  0  0  0  0  0
    9.1576   -4.6236   15.8860 O   0  0  0  0  0  0  0  0  0  0  0  0
    9.1509   -5.9108   17.7177 C   0  0  0  0  0  0  0  0  0  0  0  0
    3.6373   -9.5349   16.0582 N   0  0  0  0  0  0  0  0  0  0  0  0
    9.9275   -4.8001   18.0438 N   0  0  0  0  0  0  0  0  0  0  0  0
    8.5908   -5.7425   16.4412 C   0  0  0  0  0  0  0  0  0  0  0  0
   10.5993   -4.8981   21.6068 C   0  0  0  0  0  0  0  0  0  0  0  0
   10.4258   -3.0106   23.0998 C   0  0  0  0  0  0  0  0  0  0  0  0
   10.2148   -3.4364   25.4200 C   0  0  0  0  0  0  0  0  0  0  0  0
    9.7853   -1.1840   24.4927 C   0  0  0  0  0  0  0  0  0  0  0  0
    5.0276   -8.5227   17.5352 C   0  0  0  0  0  0  0  0  0  0  0  0
    9.8187   -2.0895   25.5800 C   0  0  0  0  0  0  0  0  0  0  0  0
    5.6473   -8.7216   15.3158 C   0  0  0  0  0  0  0  0  0  0  0  0
   10.7581   -3.1233   19.4720 N   0  0  0  0  0  0  0  0  0  0  0  0
    9.9571   -4.0573   16.8866 C   0  0  0  0  0  0  0  0  0  0  0  0
    7.6213   -6.5618   16.0087 C   0  0  0  0  0  0  0  0  0  0  0  0
   10.8583   -2.6527   20.7222 C   0  0  0  0  0  0  0  0  0  0  0  0
   10.6412   -3.5089   21.7936 C   0  0  0  0  0  0  0  0  0  0  0  0
   10.4972   -3.8968   24.1589 C   0  0  0  0  0  0  0  0  0  0  0  0
    5.9260   -8.2736   16.5517 C   0  0  0  0  0  0  0  0  0  0  0  0
    3.8816   -9.1166   17.2493 C   0  0  0  0  0  0  0  0  0  0  0  0
   10.1297   -1.6575   23.2324 C   0  0  0  0  0  0  0  0  0  0  0  0
    9.4684   -1.6929   26.7263 F   0  0  0  0  0  0  0  0  0  0  0  0
    7.7963   -7.7906   17.9837 C   0  0  0  0  0  0  0  0  0  0  0  0
   10.5884   -3.0725   16.7902 O   0  0  0  0  0  0  0  0  0  0  0  0
   10.4323   -5.3494   20.3516 C   0  0  0  0  0  0  0  0  0  0  0  0
    7.1156   -7.5454   16.8218 C   0  0  0  0  0  0  0  0  0  0  0  0
   10.3885   -4.4388   19.2773 C   0  0  0  0  0  0  0  0  0  0  0  0
    4.5160   -9.3822   15.0841 C   0  0  0  0  0  0  0  0  0  0  0  0
  1  3  4  0
  1 24  4  0
  2  6  4  0
  2 15  4  0
  3  5  4  0
  3  6  4  0
  4 21  4  0
  4 29  4  0
  5 15  4  0
  5 28  1  0
  6 16  4  0
  7 18  4  0
  7 26  4  0
  8 18  1  0
  8 19  4  0
  8 22  4  0
  9 12  4  0
  9 19  4  0
 10 12  4  0
 10 22  4  0
 11 20  4  0
 11 21  4  0
 12 23  1  0
 13 20  4  0
 13 29  4  0
 14 17  4  0
 14 28  4  0
 15 25  2  0
 16 27  4  0
 17 18  4  0
 20 27  1  0
 24 27  4  0
 26 28  4  0
M  END
$$$$

 Created by Python create_sdf_string function

 29 33  0  0  0  0  0  0  0  0999 V2000
    8.8270   -7.0288   18.4251 C   0  0  0  0  0  0  0  0  0  0  0  0
    9.1576   -4.6236   15.8860 O   0  0  0  0  0  0  0  0  0  0  0  0
    9.1509   -5.9108   17.7177 C   0  0  0  0  0  0  0  0  0  0  0  0
    3.6373   -9.5349   16.0582 N   0  0  0  0  0  0  0  0  0  0  0  0
    9.9275   -4.8001   18.0438 N   0  0  0  0  0  0  0  0  0  0  0  0
    8.5908   -5.7425   16.4412 C   0  0  0  0  0  0  0  0  0  0  0  0
   10.5993   -4.8981   21.6068 C   0  0  0  0  0  0  0  0  0  0  0  0
   10.4258   -3.0106   23.0998 C   0  0  0  0  0  0  0  0  0  0  0  0
   10.2148   -3.4364   25.4200 C   0  0  0  0  0  0  0  0  0  0  0  0
    9.7853   -1.1840   24.4927 C   0  0  0  0  0  0  0  0  0  0  0  0
    5.0276   -8.5227   17.5352 C   0  0  0  0  0  0  0  0  0  0  0  0
    9.8187   -2.0895   25.5800 C   0  0  0  0  0  0  0  0  0  0  0  0
    5.6473   -8.7216   15.3158 C   0  0  0  0  0  0  0  0  0  0  0  0
   10.7581   -3.1233   19.4720 N   0  0  0  0  0  0  0  0  0  0  0  0
    9.9571   -4.0573   16.8866 C   0  0  0  0  0  0  0  0  0  0  0  0
    7.6213   -6.5618   16.0087 C   0  0  0  0  0  0  0  0  0  0  0  0
   10.8583   -2.6527   20.7222 C   0  0  0  0  0  0  0  0  0  0  0  0
   10.6412   -3.5089   21.7936 C   0  0  0  0  0  0  0  0  0  0  0  0
   10.4972   -3.8968   24.1589 C   0  0  0  0  0  0  0  0  0  0  0  0
    5.9260   -8.2736   16.5517 C   0  0  0  0  0  0  0  0  0  0  0  0
    3.8816   -9.1166   17.2493 C   0  0  0  0  0  0  0  0  0  0  0  0
   10.1297   -1.6575   23.2324 C   0  0  0  0  0  0  0  0  0  0  0  0
    9.4684   -1.6929   26.7263 F   0  0  0  0  0  0  0  0  0  0  0  0
    7.7963   -7.7906   17.9837 C   0  0  0  0  0  0  0  0  0  0  0  0
   10.5884   -3.0725   16.7902 O   0  0  0  0  0  0  0  0  0  0  0  0
   10.4323   -5.3494   20.3516 C   0  0  0  0  0  0  0  0  0  0  0  0
    7.1156   -7.5454   16.8218 C   0  0  0  0  0  0  0  0  0  0  0  0
   10.3885   -4.4388   19.2773 C   0  0  0  0  0  0  0  0  0  0  0  0
    4.5160   -9.3822   15.0841 C   0  0  0  0  0  0  0  0  0  0  0  0
  1  3  4  0
  1 24  4  0
  2  6  4  0
  2 15  4  0
  3  5  4  0
  3  6  4  0
  4 21  4  0
  4 29  4  0
  5 15  4  0
  5 28  1  0
  6 16  4  0
  7 18  4  0
  7 26  4  0
  8 18  1  0
  8 19  4  0
  8 22  4  0
  9 12  4  0
  9 19  4  0
 10 12  4  0
 10 22  4  0
 11 20  4  0
 11 21  4  0
 12 23  1  0
 13 20  4  0
 13 29  4  0
 14 17  4  0
 14 28  4  0
 15 25  2  0
 16 27  4  0
 17 18  4  0
 20 27  1  0
 24 27  4  0
 26 28  4  0
M  END
$$$$

 Created by Python create_sdf_string function

 29 33  0  0  0  0  0  0  0  0999 V2000
    8.8270   -7.0288   18.4251 C   0  0  0  0  0  0  0  0  0  0  0  0
    9.1576   -4.6236   15.8860 O   0  0  0  0  0  0  0  0  0  0  0  0
    9.1509   -5.9108   17.7177 C   0  0  0  0  0  0  0  0  0  0  0  0
    3.6373   -9.5349   16.0582 N   0  0  0  0  0  0  0  0  0  0  0  0
    9.9275   -4.8001   18.0438 N   0  0  0  0  0  0  0  0  0  0  0  0
    8.5908   -5.7425   16.4412 C   0  0  0  0  0  0  0  0  0  0  0  0
   10.5993   -4.8981   21.6068 C   0  0  0  0  0  0  0  0  0  0  0  0
   10.4258   -3.0106   23.0998 C   0  0  0  0  0  0  0  0  0  0  0  0
   10.2148   -3.4364   25.4200 C   0  0  0  0  0  0  0  0  0  0  0  0
    9.7853   -1.1840   24.4927 C   0  0  0  0  0  0  0  0  0  0  0  0
    5.0276   -8.5227   17.5352 C   0  0  0  0  0  0  0  0  0  0  0  0
    9.8187   -2.0895   25.5800 C   0  0  0  0  0  0  0  0  0  0  0  0
    5.6473   -8.7216   15.3158 C   0  0  0  0  0  0  0  0  0  0  0  0
   10.7581   -3.1233   19.4720 N   0  0  0  0  0  0  0  0  0  0  0  0
    9.9571   -4.0573   16.8866 C   0  0  0  0  0  0  0  0  0  0  0  0
    7.6213   -6.5618   16.0087 C   0  0  0  0  0  0  0  0  0  0  0  0
   10.8583   -2.6527   20.7222 C   0  0  0  0  0  0  0  0  0  0  0  0
   10.6412   -3.5089   21.7936 C   0  0  0  0  0  0  0  0  0  0  0  0
   10.4972   -3.8968   24.1589 C   0  0  0  0  0  0  0  0  0  0  0  0
    5.9260   -8.2736   16.5517 C   0  0  0  0  0  0  0  0  0  0  0  0
    3.8816   -9.1166   17.2493 C   0  0  0  0  0  0  0  0  0  0  0  0
   10.1297   -1.6575   23.2324 C   0  0  0  0  0  0  0  0  0  0  0  0
    9.4684   -1.6929   26.7263 F   0  0  0  0  0  0  0  0  0  0  0  0
    7.7963   -7.7906   17.9837 C   0  0  0  0  0  0  0  0  0  0  0  0
   10.5884   -3.0725   16.7902 O   0  0  0  0  0  0  0  0  0  0  0  0
   10.4323   -5.3494   20.3516 C   0  0  0  0  0  0  0  0  0  0  0  0
    7.1156   -7.5454   16.8218 C   0  0  0  0  0  0  0  0  0  0  0  0
   10.3885   -4.4388   19.2773 C   0  0  0  0  0  0  0  0  0  0  0  0
    4.5160   -9.3822   15.0841 C   0  0  0  0  0  0  0  0  0  0  0  0
  1  3  4  0
  1 24  4  0
  2  6  4  0
  2 15  4  0
  3  5  4  0
  3  6  4  0
  4 21  4  0
  4 29  4  0
  5 15  4  0
  5 28  1  0
  6 16  4  0
  7 18  4  0
  7 26  4  0
  8 18  1  0
  8 19  4  0
  8 22  4  0
  9 12  4  0
  9 19  4  0
 10 12  4  0
 10 22  4  0
 11 20  4  0
 11 21  4  0
 12 23  1  0
 13 20  4  0
 13 29  4  0
 14 17  4  0
 14 28  4  0
 15 25  2  0
 16 27  4  0
 17 18  4  0
 20 27  1  0
 24 27  4  0
 26 28  4  0
M  END
$$$$

 Created by Python create_sdf_string function

 29 33  0  0  0  0  0  0  0  0999 V2000
    8.8270   -7.0288   18.4251 C   0  0  0  0  0  0  0  0  0  0  0  0
    9.1576   -4.6236   15.8860 O   0  0  0  0  0  0  0  0  0  0  0  0
    9.1509   -5.9108   17.7177 C   0  0  0  0  0  0  0  0  0  0  0  0
    3.6373   -9.5349   16.0582 N   0  0  0  0  0  0  0  0  0  0  0  0
    9.9275   -4.8001   18.0438 N   0  0  0  0  0  0  0  0  0  0  0  0
    8.5908   -5.7425   16.4412 C   0  0  0  0  0  0  0  0  0  0  0  0
   10.5993   -4.8981   21.6068 C   0  0  0  0  0  0  0  0  0  0  0  0
   10.4258   -3.0106   23.0998 C   0  0  0  0  0  0  0  0  0  0  0  0
   10.2148   -3.4364   25.4200 C   0  0  0  0  0  0  0  0  0  0  0  0
    9.7853   -1.1840   24.4927 C   0  0  0  0  0  0  0  0  0  0  0  0
    5.0276   -8.5227   17.5352 C   0  0  0  0  0  0  0  0  0  0  0  0
    9.8187   -2.0895   25.5800 C   0  0  0  0  0  0  0  0  0  0  0  0
    5.6473   -8.7216   15.3158 C   0  0  0  0  0  0  0  0  0  0  0  0
   10.7581   -3.1233   19.4720 N   0  0  0  0  0  0  0  0  0  0  0  0
    9.9571   -4.0573   16.8866 C   0  0  0  0  0  0  0  0  0  0  0  0
    7.6213   -6.5618   16.0087 C   0  0  0  0  0  0  0  0  0  0  0  0
   10.8583   -2.6527   20.7222 C   0  0  0  0  0  0  0  0  0  0  0  0
   10.6412   -3.5089   21.7936 C   0  0  0  0  0  0  0  0  0  0  0  0
   10.4972   -3.8968   24.1589 C   0  0  0  0  0  0  0  0  0  0  0  0
    5.9260   -8.2736   16.5517 C   0  0  0  0  0  0  0  0  0  0  0  0
    3.8816   -9.1166   17.2493 C   0  0  0  0  0  0  0  0  0  0  0  0
   10.1297   -1.6575   23.2324 C   0  0  0  0  0  0  0  0  0  0  0  0
    9.4684   -1.6929   26.7263 F   0  0  0  0  0  0  0  0  0  0  0  0
    7.7963   -7.7906   17.9837 C   0  0  0  0  0  0  0  0  0  0  0  0
   10.5884   -3.0725   16.7902 O   0  0  0  0  0  0  0  0  0  0  0  0
   10.4323   -5.3494   20.3516 C   0  0  0  0  0  0  0  0  0  0  0  0
    7.1156   -7.5454   16.8218 C   0  0  0  0  0  0  0  0  0  0  0  0
   10.3885   -4.4388   19.2773 C   0  0  0  0  0  0  0  0  0  0  0  0
    4.5160   -9.3822   15.0841 C   0  0  0  0  0  0  0  0  0  0  0  0
  1  3  4  0
  1 24  4  0
  2  6  4  0
  2 15  4  0
  3  5  4  0
  3  6  4  0
  4 21  4  0
  4 29  4  0
  5 15  4  0
  5 28  1  0
  6 16  4  0
  7 18  4  0
  7 26  4  0
  8 18  1  0
  8 19  4  0
  8 22  4  0
  9 12  4  0
  9 19  4  0
 10 12  4  0
 10 22  4  0
 11 20  4  0
 11 21  4  0
 12 23  1  0
 13 20  4  0
 13 29  4  0
 14 17  4  0
 14 28  4  0
 15 25  2  0
 16 27  4  0
 17 18  4  0
 20 27  1  0
 24 27  4  0
 26 28  4  0
M  END
$$$$

 Created by Python create_sdf_string function

 29 33  0  0  0  0  0  0  0  0999 V2000
    8.8270   -7.0288   18.4251 C   0  0  0  0  0  0  0  0  0  0  0  0
    9.1576   -4.6236   15.8860 O   0  0  0  0  0  0  0  0  0  0  0  0
    9.1509   -5.9108   17.7177 C   0  0  0  0  0  0  0  0  0  0  0  0
    3.6373   -9.5349   16.0582 N   0  0  0  0  0  0  0  0  0  0  0  0
    9.9275   -4.8001   18.0438 N   0  0  0  0  0  0  0  0  0  0  0  0
    8.5908   -5.7425   16.4412 C   0  0  0  0  0  0  0  0  0  0  0  0
   10.5993   -4.8981   21.6068 C   0  0  0  0  0  0  0  0  0  0  0  0
   10.4258   -3.0106   23.0998 C   0  0  0  0  0  0  0  0  0  0  0  0
   10.2148   -3.4364   25.4200 C   0  0  0  0  0  0  0  0  0  0  0  0
    9.7853   -1.1840   24.4927 C   0  0  0  0  0  0  0  0  0  0  0  0
    5.0276   -8.5227   17.5352 C   0  0  0  0  0  0  0  0  0  0  0  0
    9.8187   -2.0895   25.5800 C   0  0  0  0  0  0  0  0  0  0  0  0
    5.6473   -8.7216   15.3158 C   0  0  0  0  0  0  0  0  0  0  0  0
   10.7581   -3.1233   19.4720 N   0  0  0  0  0  0  0  0  0  0  0  0
    9.9571   -4.0573   16.8866 C   0  0  0  0  0  0  0  0  0  0  0  0
    7.6213   -6.5618   16.0087 C   0  0  0  0  0  0  0  0  0  0  0  0
   10.8583   -2.6527   20.7222 C   0  0  0  0  0  0  0  0  0  0  0  0
   10.6412   -3.5089   21.7936 C   0  0  0  0  0  0  0  0  0  0  0  0
   10.4972   -3.8968   24.1589 C   0  0  0  0  0  0  0  0  0  0  0  0
    5.9260   -8.2736   16.5517 C   0  0  0  0  0  0  0  0  0  0  0  0
    3.8816   -9.1166   17.2493 C   0  0  0  0  0  0  0  0  0  0  0  0
   10.1297   -1.6575   23.2324 C   0  0  0  0  0  0  0  0  0  0  0  0
    9.4684   -1.6929   26.7263 F   0  0  0  0  0  0  0  0  0  0  0  0
    7.7963   -7.7906   17.9837 C   0  0  0  0  0  0  0  0  0  0  0  0
   10.5884   -3.0725   16.7902 O   0  0  0  0  0  0  0  0  0  0  0  0
   10.4323   -5.3494   20.3516 C   0  0  0  0  0  0  0  0  0  0  0  0
    7.1156   -7.5454   16.8218 C   0  0  0  0  0  0  0  0  0  0  0  0
   10.3885   -4.4388   19.2773 C   0  0  0  0  0  0  0  0  0  0  0  0
    4.5160   -9.3822   15.0841 C   0  0  0  0  0  0  0  0  0  0  0  0
  1  3  4  0
  1 24  4  0
  2  6  4  0
  2 15  4  0
  3  5  4  0
  3  6  4  0
  4 21  4  0
  4 29  4  0
  5 15  4  0
  5 28  1  0
  6 16  4  0
  7 18  4  0
  7 26  4  0
  8 18  1  0
  8 19  4  0
  8 22  4  0
  9 12  4  0
  9 19  4  0
 10 12  4  0
 10 22  4  0
 11 20  4  0
 11 21  4  0
 12 23  1  0
 13 20  4  0
 13 29  4  0
 14 17  4  0
 14 28  4  0
 15 25  2  0
 16 27  4  0
 17 18  4  0
 20 27  1  0
 24 27  4  0
 26 28  4  0
M  END
$$$$

 Created by Python create_sdf_string function

 29 33  0  0  0  0  0  0  0  0999 V2000
    8.8270   -7.0288   18.4251 C   0  0  0  0  0  0  0  0  0  0  0  0
    9.1576   -4.6236   15.8860 O   0  0  0  0  0  0  0  0  0  0  0  0
    9.1509   -5.9108   17.7177 C   0  0  0  0  0  0  0  0  0  0  0  0
    3.6373   -9.5349   16.0582 N   0  0  0  0  0  0  0  0  0  0  0  0
    9.9275   -4.8001   18.0438 N   0  0  0  0  0  0  0  0  0  0  0  0
    8.5908   -5.7425   16.4412 C   0  0  0  0  0  0  0  0  0  0  0  0
   10.5993   -4.8981   21.6068 C   0  0  0  0  0  0  0  0  0  0  0  0
   10.4258   -3.0106   23.0998 C   0  0  0  0  0  0  0  0  0  0  0  0
   10.2148   -3.4364   25.4200 C   0  0  0  0  0  0  0  0  0  0  0  0
    9.7853   -1.1840   24.4927 C   0  0  0  0  0  0  0  0  0  0  0  0
    5.0276   -8.5227   17.5352 C   0  0  0  0  0  0  0  0  0  0  0  0
    9.8187   -2.0895   25.5800 C   0  0  0  0  0  0  0  0  0  0  0  0
    5.6473   -8.7216   15.3158 C   0  0  0  0  0  0  0  0  0  0  0  0
   10.7581   -3.1233   19.4720 N   0  0  0  0  0  0  0  0  0  0  0  0
    9.9571   -4.0573   16.8866 C   0  0  0  0  0  0  0  0  0  0  0  0
    7.6213   -6.5618   16.0087 C   0  0  0  0  0  0  0  0  0  0  0  0
   10.8583   -2.6527   20.7222 C   0  0  0  0  0  0  0  0  0  0  0  0
   10.6412   -3.5089   21.7936 C   0  0  0  0  0  0  0  0  0  0  0  0
   10.4972   -3.8968   24.1589 C   0  0  0  0  0  0  0  0  0  0  0  0
    5.9260   -8.2736   16.5517 C   0  0  0  0  0  0  0  0  0  0  0  0
    3.8816   -9.1166   17.2493 C   0  0  0  0  0  0  0  0  0  0  0  0
   10.1297   -1.6575   23.2324 C   0  0  0  0  0  0  0  0  0  0  0  0
    9.4684   -1.6929   26.7263 F   0  0  0  0  0  0  0  0  0  0  0  0
    7.7963   -7.7906   17.9837 C   0  0  0  0  0  0  0  0  0  0  0  0
   10.5884   -3.0725   16.7902 O   0  0  0  0  0  0  0  0  0  0  0  0
   10.4323   -5.3494   20.3516 C   0  0  0  0  0  0  0  0  0  0  0  0
    7.1156   -7.5454   16.8218 C   0  0  0  0  0  0  0  0  0  0  0  0
   10.3885   -4.4388   19.2773 C   0  0  0  0  0  0  0  0  0  0  0  0
    4.5160   -9.3822   15.0841 C   0  0  0  0  0  0  0  0  0  0  0  0
  1  3  4  0
  1 24  4  0
  2  6  4  0
  2 15  4  0
  3  5  4  0
  3  6  4  0
  4 21  4  0
  4 29  4  0
  5 15  4  0
  5 28  1  0
  6 16  4  0
  7 18  4  0
  7 26  4  0
  8 18  1  0
  8 19  4  0
  8 22  4  0
  9 12  4  0
  9 19  4  0
 10 12  4  0
 10 22  4  0
 11 20  4  0
 11 21  4  0
 12 23  1  0
 13 20  4  0
 13 29  4  0
 14 17  4  0
 14 28  4  0
 15 25  2  0
 16 27  4  0
 17 18  4  0
 20 27  1  0
 24 27  4  0
 26 28  4  0
M  END
$$$$

 Created by Python create_sdf_string function

 29 33  0  0  0  0  0  0  0  0999 V2000
    8.8270   -7.0288   18.4251 C   0  0  0  0  0  0  0  0  0  0  0  0
    9.1576   -4.6236   15.8860 O   0  0  0  0  0  0  0  0  0  0  0  0
    9.1509   -5.9108   17.7177 C   0  0  0  0  0  0  0  0  0  0  0  0
    3.6373   -9.5349   16.0582 N   0  0  0  0  0  0  0  0  0  0  0  0
    9.9275   -4.8001   18.0438 N   0  0  0  0  0  0  0  0  0  0  0  0
    8.5908   -5.7425   16.4412 C   0  0  0  0  0  0  0  0  0  0  0  0
   10.5993   -4.8981   21.6068 C   0  0  0  0  0  0  0  0  0  0  0  0
   10.4258   -3.0106   23.0998 C   0  0  0  0  0  0  0  0  0  0  0  0
   10.2148   -3.4364   25.4200 C   0  0  0  0  0  0  0  0  0  0  0  0
    9.7853   -1.1840   24.4927 C   0  0  0  0  0  0  0  0  0  0  0  0
    5.0276   -8.5227   17.5352 C   0  0  0  0  0  0  0  0  0  0  0  0
    9.8187   -2.0895   25.5800 C   0  0  0  0  0  0  0  0  0  0  0  0
    5.6473   -8.7216   15.3158 C   0  0  0  0  0  0  0  0  0  0  0  0
   10.7581   -3.1233   19.4720 N   0  0  0  0  0  0  0  0  0  0  0  0
    9.9571   -4.0573   16.8866 C   0  0  0  0  0  0  0  0  0  0  0  0
    7.6213   -6.5618   16.0087 C   0  0  0  0  0  0  0  0  0  0  0  0
   10.8583   -2.6527   20.7222 C   0  0  0  0  0  0  0  0  0  0  0  0
   10.6412   -3.5089   21.7936 C   0  0  0  0  0  0  0  0  0  0  0  0
   10.4972   -3.8968   24.1589 C   0  0  0  0  0  0  0  0  0  0  0  0
    5.9260   -8.2736   16.5517 C   0  0  0  0  0  0  0  0  0  0  0  0
    3.8816   -9.1166   17.2493 C   0  0  0  0  0  0  0  0  0  0  0  0
   10.1297   -1.6575   23.2324 C   0  0  0  0  0  0  0  0  0  0  0  0
    9.4684   -1.6929   26.7263 F   0  0  0  0  0  0  0  0  0  0  0  0
    7.7963   -7.7906   17.9837 C   0  0  0  0  0  0  0  0  0  0  0  0
   10.5884   -3.0725   16.7902 O   0  0  0  0  0  0  0  0  0  0  0  0
   10.4323   -5.3494   20.3516 C   0  0  0  0  0  0  0  0  0  0  0  0
    7.1156   -7.5454   16.8218 C   0  0  0  0  0  0  0  0  0  0  0  0
   10.3885   -4.4388   19.2773 C   0  0  0  0  0  0  0  0  0  0  0  0
    4.5160   -9.3822   15.0841 C   0  0  0  0  0  0  0  0  0  0  0  0
  1  3  4  0
  1 24  4  0
  2  6  4  0
  2 15  4  0
  3  5  4  0
  3  6  4  0
  4 21  4  0
  4 29  4  0
  5 15  4  0
  5 28  1  0
  6 16  4  0
  7 18  4  0
  7 26  4  0
  8 18  1  0
  8 19  4  0
  8 22  4  0
  9 12  4  0
  9 19  4  0
 10 12  4  0
 10 22  4  0
 11 20  4  0
 11 21  4  0
 12 23  1  0
 13 20  4  0
 13 29  4  0
 14 17  4  0
 14 28  4  0
 15 25  2  0
 16 27  4  0
 17 18  4  0
 20 27  1  0
 24 27  4  0
 26 28  4  0
M  END
$$$$

 Created by Python create_sdf_string function

 29 33  0  0  0  0  0  0  0  0999 V2000
    8.8270   -7.0288   18.4251 C   0  0  0  0  0  0  0  0  0  0  0  0
    9.1576   -4.6236   15.8860 O   0  0  0  0  0  0  0  0  0  0  0  0
    9.1509   -5.9108   17.7177 C   0  0  0  0  0  0  0  0  0  0  0  0
    3.6373   -9.5349   16.0582 N   0  0  0  0  0  0  0  0  0  0  0  0
    9.9275   -4.8001   18.0438 N   0  0  0  0  0  0  0  0  0  0  0  0
    8.5908   -5.7425   16.4412 C   0  0  0  0  0  0  0  0  0  0  0  0
   10.5993   -4.8981   21.6068 C   0  0  0  0  0  0  0  0  0  0  0  0
   10.4258   -3.0106   23.0998 C   0  0  0  0  0  0  0  0  0  0  0  0
   10.2148   -3.4364   25.4200 C   0  0  0  0  0  0  0  0  0  0  0  0
    9.7853   -1.1840   24.4927 C   0  0  0  0  0  0  0  0  0  0  0  0
    5.0276   -8.5227   17.5352 C   0  0  0  0  0  0  0  0  0  0  0  0
    9.8187   -2.0895   25.5800 C   0  0  0  0  0  0  0  0  0  0  0  0
    5.6473   -8.7216   15.3158 C   0  0  0  0  0  0  0  0  0  0  0  0
   10.7581   -3.1233   19.4720 N   0  0  0  0  0  0  0  0  0  0  0  0
    9.9571   -4.0573   16.8866 C   0  0  0  0  0  0  0  0  0  0  0  0
    7.6213   -6.5618   16.0087 C   0  0  0  0  0  0  0  0  0  0  0  0
   10.8583   -2.6527   20.7222 C   0  0  0  0  0  0  0  0  0  0  0  0
   10.6412   -3.5089   21.7936 C   0  0  0  0  0  0  0  0  0  0  0  0
   10.4972   -3.8968   24.1589 C   0  0  0  0  0  0  0  0  0  0  0  0
    5.9260   -8.2736   16.5517 C   0  0  0  0  0  0  0  0  0  0  0  0
    3.8816   -9.1166   17.2493 C   0  0  0  0  0  0  0  0  0  0  0  0
   10.1297   -1.6575   23.2324 C   0  0  0  0  0  0  0  0  0  0  0  0
    9.4684   -1.6929   26.7263 F   0  0  0  0  0  0  0  0  0  0  0  0
    7.7963   -7.7906   17.9837 C   0  0  0  0  0  0  0  0  0  0  0  0
   10.5884   -3.0725   16.7902 O   0  0  0  0  0  0  0  0  0  0  0  0
   10.4323   -5.3494   20.3516 C   0  0  0  0  0  0  0  0  0  0  0  0
    7.1156   -7.5454   16.8218 C   0  0  0  0  0  0  0  0  0  0  0  0
   10.3885   -4.4388   19.2773 C   0  0  0  0  0  0  0  0  0  0  0  0
    4.5160   -9.3822   15.0841 C   0  0  0  0  0  0  0  0  0  0  0  0
  1  3  4  0
  1 24  4  0
  2  6  4  0
  2 15  4  0
  3  5  4  0
  3  6  4  0
  4 21  4  0
  4 29  4  0
  5 15  4  0
  5 28  1  0
  6 16  4  0
  7 18  4  0
  7 26  4  0
  8 18  1  0
  8 19  4  0
  8 22  4  0
  9 12  4  0
  9 19  4  0
 10 12  4  0
 10 22  4  0
 11 20  4  0
 11 21  4  0
 12 23  1  0
 13 20  4  0
 13 29  4  0
 14 17  4  0
 14 28  4  0
 15 25  2  0
 16 27  4  0
 17 18  4  0
 20 27  1  0
 24 27  4  0
 26 28  4  0
M  END
$$$$

 Created by Python create_sdf_string function

 29 33  0  0  0  0  0  0  0  0999 V2000
    8.8270   -7.0288   18.4251 C   0  0  0  0  0  0  0  0  0  0  0  0
    9.1576   -4.6236   15.8860 O   0  0  0  0  0  0  0  0  0  0  0  0
    9.1509   -5.9108   17.7177 C   0  0  0  0  0  0  0  0  0  0  0  0
    3.6373   -9.5349   16.0582 N   0  0  0  0  0  0  0  0  0  0  0  0
    9.9275   -4.8001   18.0438 N   0  0  0  0  0  0  0  0  0  0  0  0
    8.5908   -5.7425   16.4412 C   0  0  0  0  0  0  0  0  0  0  0  0
   10.5993   -4.8981   21.6068 C   0  0  0  0  0  0  0  0  0  0  0  0
   10.4258   -3.0106   23.0998 C   0  0  0  0  0  0  0  0  0  0  0  0
   10.2148   -3.4364   25.4200 C   0  0  0  0  0  0  0  0  0  0  0  0
    9.7853   -1.1840   24.4927 C   0  0  0  0  0  0  0  0  0  0  0  0
    5.0276   -8.5227   17.5352 C   0  0  0  0  0  0  0  0  0  0  0  0
    9.8187   -2.0895   25.5800 C   0  0  0  0  0  0  0  0  0  0  0  0
    5.6473   -8.7216   15.3158 C   0  0  0  0  0  0  0  0  0  0  0  0
   10.7581   -3.1233   19.4720 N   0  0  0  0  0  0  0  0  0  0  0  0
    9.9571   -4.0573   16.8866 C   0  0  0  0  0  0  0  0  0  0  0  0
    7.6213   -6.5618   16.0087 C   0  0  0  0  0  0  0  0  0  0  0  0
   10.8583   -2.6527   20.7222 C   0  0  0  0  0  0  0  0  0  0  0  0
   10.6412   -3.5089   21.7936 C   0  0  0  0  0  0  0  0  0  0  0  0
   10.4972   -3.8968   24.1589 C   0  0  0  0  0  0  0  0  0  0  0  0
    5.9260   -8.2736   16.5517 C   0  0  0  0  0  0  0  0  0  0  0  0
    3.8816   -9.1166   17.2493 C   0  0  0  0  0  0  0  0  0  0  0  0
   10.1297   -1.6575   23.2324 C   0  0  0  0  0  0  0  0  0  0  0  0
    9.4684   -1.6929   26.7263 F   0  0  0  0  0  0  0  0  0  0  0  0
    7.7963   -7.7906   17.9837 C   0  0  0  0  0  0  0  0  0  0  0  0
   10.5884   -3.0725   16.7902 O   0  0  0  0  0  0  0  0  0  0  0  0
   10.4323   -5.3494   20.3516 C   0  0  0  0  0  0  0  0  0  0  0  0
    7.1156   -7.5454   16.8218 C   0  0  0  0  0  0  0  0  0  0  0  0
   10.3885   -4.4388   19.2773 C   0  0  0  0  0  0  0  0  0  0  0  0
    4.5160   -9.3822   15.0841 C   0  0  0  0  0  0  0  0  0  0  0  0
  1  3  4  0
  1 24  4  0
  2  6  4  0
  2 15  4  0
  3  5  4  0
  3  6  4  0
  4 21  4  0
  4 29  4  0
  5 15  4  0
  5 28  1  0
  6 16  4  0
  7 18  4  0
  7 26  4  0
  8 18  1  0
  8 19  4  0
  8 22  4  0
  9 12  4  0
  9 19  4  0
 10 12  4  0
 10 22  4  0
 11 20  4  0
 11 21  4  0
 12 23  1  0
 13 20  4  0
 13 29  4  0
 14 17  4  0
 14 28  4  0
 15 25  2  0
 16 27  4  0
 17 18  4  0
 20 27  1  0
 24 27  4  0
 26 28  4  0
M  END
$$$$

 Created by Python create_sdf_string function

 29 33  0  0  0  0  0  0  0  0999 V2000
    8.8270   -7.0288   18.4251 C   0  0  0  0  0  0  0  0  0  0  0  0
    9.1576   -4.6236   15.8860 O   0  0  0  0  0  0  0  0  0  0  0  0
    9.1509   -5.9108   17.7177 C   0  0  0  0  0  0  0  0  0  0  0  0
    3.6373   -9.5349   16.0582 N   0  0  0  0  0  0  0  0  0  0  0  0
    9.9275   -4.8001   18.0438 N   0  0  0  0  0  0  0  0  0  0  0  0
    8.5908   -5.7425   16.4412 C   0  0  0  0  0  0  0  0  0  0  0  0
   10.5993   -4.8981   21.6068 C   0  0  0  0  0  0  0  0  0  0  0  0
   10.4258   -3.0106   23.0998 C   0  0  0  0  0  0  0  0  0  0  0  0
   10.2148   -3.4364   25.4200 C   0  0  0  0  0  0  0  0  0  0  0  0
    9.7853   -1.1840   24.4927 C   0  0  0  0  0  0  0  0  0  0  0  0
    5.0276   -8.5227   17.5352 C   0  0  0  0  0  0  0  0  0  0  0  0
    9.8187   -2.0895   25.5800 C   0  0  0  0  0  0  0  0  0  0  0  0
    5.6473   -8.7216   15.3158 C   0  0  0  0  0  0  0  0  0  0  0  0
   10.7581   -3.1233   19.4720 N   0  0  0  0  0  0  0  0  0  0  0  0
    9.9571   -4.0573   16.8866 C   0  0  0  0  0  0  0  0  0  0  0  0
    7.6213   -6.5618   16.0087 C   0  0  0  0  0  0  0  0  0  0  0  0
   10.8583   -2.6527   20.7222 C   0  0  0  0  0  0  0  0  0  0  0  0
   10.6412   -3.5089   21.7936 C   0  0  0  0  0  0  0  0  0  0  0  0
   10.4972   -3.8968   24.1589 C   0  0  0  0  0  0  0  0  0  0  0  0
    5.9260   -8.2736   16.5517 C   0  0  0  0  0  0  0  0  0  0  0  0
    3.8816   -9.1166   17.2493 C   0  0  0  0  0  0  0  0  0  0  0  0
   10.1297   -1.6575   23.2324 C   0  0  0  0  0  0  0  0  0  0  0  0
    9.4684   -1.6929   26.7263 F   0  0  0  0  0  0  0  0  0  0  0  0
    7.7963   -7.7906   17.9837 C   0  0  0  0  0  0  0  0  0  0  0  0
   10.5884   -3.0725   16.7902 O   0  0  0  0  0  0  0  0  0  0  0  0
   10.4323   -5.3494   20.3516 C   0  0  0  0  0  0  0  0  0  0  0  0
    7.1156   -7.5454   16.8218 C   0  0  0  0  0  0  0  0  0  0  0  0
   10.3885   -4.4388   19.2773 C   0  0  0  0  0  0  0  0  0  0  0  0
    4.5160   -9.3822   15.0841 C   0  0  0  0  0  0  0  0  0  0  0  0
  1  3  4  0
  1 24  4  0
  2  6  4  0
  2 15  4  0
  3  5  4  0
  3  6  4  0
  4 21  4  0
  4 29  4  0
  5 15  4  0
  5 28  1  0
  6 16  4  0
  7 18  4  0
  7 26  4  0
  8 18  1  0
  8 19  4  0
  8 22  4  0
  9 12  4  0
  9 19  4  0
 10 12  4  0
 10 22  4  0
 11 20  4  0
 11 21  4  0
 12 23  1  0
 13 20  4  0
 13 29  4  0
 14 17  4  0
 14 28  4  0
 15 25  2  0
 16 27  4  0
 17 18  4  0
 20 27  1  0
 24 27  4  0
 26 28  4  0
M  END
$$$$

 Created by Python create_sdf_string function

 29 33  0  0  0  0  0  0  0  0999 V2000
    8.8270   -7.0288   18.4251 C   0  0  0  0  0  0  0  0  0  0  0  0
    9.1576   -4.6236   15.8860 O   0  0  0  0  0  0  0  0  0  0  0  0
    9.1509   -5.9108   17.7177 C   0  0  0  0  0  0  0  0  0  0  0  0
    3.6373   -9.5349   16.0582 N   0  0  0  0  0  0  0  0  0  0  0  0
    9.9275   -4.8001   18.0438 N   0  0  0  0  0  0  0  0  0  0  0  0
    8.5908   -5.7425   16.4412 C   0  0  0  0  0  0  0  0  0  0  0  0
   10.5993   -4.8981   21.6068 C   0  0  0  0  0  0  0  0  0  0  0  0
   10.4258   -3.0106   23.0998 C   0  0  0  0  0  0  0  0  0  0  0  0
   10.2148   -3.4364   25.4200 C   0  0  0  0  0  0  0  0  0  0  0  0
    9.7853   -1.1840   24.4927 C   0  0  0  0  0  0  0  0  0  0  0  0
    5.0276   -8.5227   17.5352 C   0  0  0  0  0  0  0  0  0  0  0  0
    9.8187   -2.0895   25.5800 C   0  0  0  0  0  0  0  0  0  0  0  0
    5.6473   -8.7216   15.3158 C   0  0  0  0  0  0  0  0  0  0  0  0
   10.7581   -3.1233   19.4720 N   0  0  0  0  0  0  0  0  0  0  0  0
    9.9571   -4.0573   16.8866 C   0  0  0  0  0  0  0  0  0  0  0  0
    7.6213   -6.5618   16.0087 C   0  0  0  0  0  0  0  0  0  0  0  0
   10.8583   -2.6527   20.7222 C   0  0  0  0  0  0  0  0  0  0  0  0
   10.6412   -3.5089   21.7936 C   0  0  0  0  0  0  0  0  0  0  0  0
   10.4972   -3.8968   24.1589 C   0  0  0  0  0  0  0  0  0  0  0  0
    5.9260   -8.2736   16.5517 C   0  0  0  0  0  0  0  0  0  0  0  0
    3.8816   -9.1166   17.2493 C   0  0  0  0  0  0  0  0  0  0  0  0
   10.1297   -1.6575   23.2324 C   0  0  0  0  0  0  0  0  0  0  0  0
    9.4684   -1.6929   26.7263 F   0  0  0  0  0  0  0  0  0  0  0  0
    7.7963   -7.7906   17.9837 C   0  0  0  0  0  0  0  0  0  0  0  0
   10.5884   -3.0725   16.7902 O   0  0  0  0  0  0  0  0  0  0  0  0
   10.4323   -5.3494   20.3516 C   0  0  0  0  0  0  0  0  0  0  0  0
    7.1156   -7.5454   16.8218 C   0  0  0  0  0  0  0  0  0  0  0  0
   10.3885   -4.4388   19.2773 C   0  0  0  0  0  0  0  0  0  0  0  0
    4.5160   -9.3822   15.0841 C   0  0  0  0  0  0  0  0  0  0  0  0
  1  3  4  0
  1 24  4  0
  2  6  4  0
  2 15  4  0
  3  5  4  0
  3  6  4  0
  4 21  4  0
  4 29  4  0
  5 15  4  0
  5 28  1  0
  6 16  4  0
  7 18  4  0
  7 26  4  0
  8 18  1  0
  8 19  4  0
  8 22  4  0
  9 12  4  0
  9 19  4  0
 10 12  4  0
 10 22  4  0
 11 20  4  0
 11 21  4  0
 12 23  1  0
 13 20  4  0
 13 29  4  0
 14 17  4  0
 14 28  4  0
 15 25  2  0
 16 27  4  0
 17 18  4  0
 20 27  1  0
 24 27  4  0
 26 28  4  0
M  END
$$$$

 Created by Python create_sdf_string function

 29 33  0  0  0  0  0  0  0  0999 V2000
    8.8270   -7.0288   18.4251 C   0  0  0  0  0  0  0  0  0  0  0  0
    9.1576   -4.6236   15.8860 O   0  0  0  0  0  0  0  0  0  0  0  0
    9.1509   -5.9108   17.7177 C   0  0  0  0  0  0  0  0  0  0  0  0
    3.6373   -9.5349   16.0582 N   0  0  0  0  0  0  0  0  0  0  0  0
    9.9275   -4.8001   18.0438 N   0  0  0  0  0  0  0  0  0  0  0  0
    8.5908   -5.7425   16.4412 C   0  0  0  0  0  0  0  0  0  0  0  0
   10.5993   -4.8981   21.6068 C   0  0  0  0  0  0  0  0  0  0  0  0
   10.4258   -3.0106   23.0998 C   0  0  0  0  0  0  0  0  0  0  0  0
   10.2148   -3.4364   25.4200 C   0  0  0  0  0  0  0  0  0  0  0  0
    9.7853   -1.1840   24.4927 C   0  0  0  0  0  0  0  0  0  0  0  0
    5.0276   -8.5227   17.5352 C   0  0  0  0  0  0  0  0  0  0  0  0
    9.8187   -2.0895   25.5800 C   0  0  0  0  0  0  0  0  0  0  0  0
    5.6473   -8.7216   15.3158 C   0  0  0  0  0  0  0  0  0  0  0  0
   10.7581   -3.1233   19.4720 N   0  0  0  0  0  0  0  0  0  0  0  0
    9.9571   -4.0573   16.8866 C   0  0  0  0  0  0  0  0  0  0  0  0
    7.6213   -6.5618   16.0087 C   0  0  0  0  0  0  0  0  0  0  0  0
   10.8583   -2.6527   20.7222 C   0  0  0  0  0  0  0  0  0  0  0  0
   10.6412   -3.5089   21.7936 C   0  0  0  0  0  0  0  0  0  0  0  0
   10.4972   -3.8968   24.1589 C   0  0  0  0  0  0  0  0  0  0  0  0
    5.9260   -8.2736   16.5517 C   0  0  0  0  0  0  0  0  0  0  0  0
    3.8816   -9.1166   17.2493 C   0  0  0  0  0  0  0  0  0  0  0  0
   10.1297   -1.6575   23.2324 C   0  0  0  0  0  0  0  0  0  0  0  0
    9.4684   -1.6929   26.7263 F   0  0  0  0  0  0  0  0  0  0  0  0
    7.7963   -7.7906   17.9837 C   0  0  0  0  0  0  0  0  0  0  0  0
   10.5884   -3.0725   16.7902 O   0  0  0  0  0  0  0  0  0  0  0  0
   10.4323   -5.3494   20.3516 C   0  0  0  0  0  0  0  0  0  0  0  0
    7.1156   -7.5454   16.8218 C   0  0  0  0  0  0  0  0  0  0  0  0
   10.3885   -4.4388   19.2773 C   0  0  0  0  0  0  0  0  0  0  0  0
    4.5160   -9.3822   15.0841 C   0  0  0  0  0  0  0  0  0  0  0  0
  1  3  4  0
  1 24  4  0
  2  6  4  0
  2 15  4  0
  3  5  4  0
  3  6  4  0
  4 21  4  0
  4 29  4  0
  5 15  4  0
  5 28  1  0
  6 16  4  0
  7 18  4  0
  7 26  4  0
  8 18  1  0
  8 19  4  0
  8 22  4  0
  9 12  4  0
  9 19  4  0
 10 12  4  0
 10 22  4  0
 11 20  4  0
 11 21  4  0
 12 23  1  0
 13 20  4  0
 13 29  4  0
 14 17  4  0
 14 28  4  0
 15 25  2  0
 16 27  4  0
 17 18  4  0
 20 27  1  0
 24 27  4  0
 26 28  4  0
M  END
$$$$

 Created by Python create_sdf_string function

 29 33  0  0  0  0  0  0  0  0999 V2000
    8.8270   -7.0288   18.4251 C   0  0  0  0  0  0  0  0  0  0  0  0
    9.1576   -4.6236   15.8860 O   0  0  0  0  0  0  0  0  0  0  0  0
    9.1509   -5.9108   17.7177 C   0  0  0  0  0  0  0  0  0  0  0  0
    3.6373   -9.5349   16.0582 N   0  0  0  0  0  0  0  0  0  0  0  0
    9.9275   -4.8001   18.0438 N   0  0  0  0  0  0  0  0  0  0  0  0
    8.5908   -5.7425   16.4412 C   0  0  0  0  0  0  0  0  0  0  0  0
   10.5993   -4.8981   21.6068 C   0  0  0  0  0  0  0  0  0  0  0  0
   10.4258   -3.0106   23.0998 C   0  0  0  0  0  0  0  0  0  0  0  0
   10.2148   -3.4364   25.4200 C   0  0  0  0  0  0  0  0  0  0  0  0
    9.7853   -1.1840   24.4927 C   0  0  0  0  0  0  0  0  0  0  0  0
    5.0276   -8.5227   17.5352 C   0  0  0  0  0  0  0  0  0  0  0  0
    9.8187   -2.0895   25.5800 C   0  0  0  0  0  0  0  0  0  0  0  0
    5.6473   -8.7216   15.3158 C   0  0  0  0  0  0  0  0  0  0  0  0
   10.7581   -3.1233   19.4720 N   0  0  0  0  0  0  0  0  0  0  0  0
    9.9571   -4.0573   16.8866 C   0  0  0  0  0  0  0  0  0  0  0  0
    7.6213   -6.5618   16.0087 C   0  0  0  0  0  0  0  0  0  0  0  0
   10.8583   -2.6527   20.7222 C   0  0  0  0  0  0  0  0  0  0  0  0
   10.6412   -3.5089   21.7936 C   0  0  0  0  0  0  0  0  0  0  0  0
   10.4972   -3.8968   24.1589 C   0  0  0  0  0  0  0  0  0  0  0  0
    5.9260   -8.2736   16.5517 C   0  0  0  0  0  0  0  0  0  0  0  0
    3.8816   -9.1166   17.2493 C   0  0  0  0  0  0  0  0  0  0  0  0
   10.1297   -1.6575   23.2324 C   0  0  0  0  0  0  0  0  0  0  0  0
    9.4684   -1.6929   26.7263 F   0  0  0  0  0  0  0  0  0  0  0  0
    7.7963   -7.7906   17.9837 C   0  0  0  0  0  0  0  0  0  0  0  0
   10.5884   -3.0725   16.7902 O   0  0  0  0  0  0  0  0  0  0  0  0
   10.4323   -5.3494   20.3516 C   0  0  0  0  0  0  0  0  0  0  0  0
    7.1156   -7.5454   16.8218 C   0  0  0  0  0  0  0  0  0  0  0  0
   10.3885   -4.4388   19.2773 C   0  0  0  0  0  0  0  0  0  0  0  0
    4.5160   -9.3822   15.0841 C   0  0  0  0  0  0  0  0  0  0  0  0
  1  3  4  0
  1 24  4  0
  2  6  4  0
  2 15  4  0
  3  5  4  0
  3  6  4  0
  4 21  4  0
  4 29  4  0
  5 15  4  0
  5 28  1  0
  6 16  4  0
  7 18  4  0
  7 26  4  0
  8 18  1  0
  8 19  4  0
  8 22  4  0
  9 12  4  0
  9 19  4  0
 10 12  4  0
 10 22  4  0
 11 20  4  0
 11 21  4  0
 12 23  1  0
 13 20  4  0
 13 29  4  0
 14 17  4  0
 14 28  4  0
 15 25  2  0
 16 27  4  0
 17 18  4  0
 20 27  1  0
 24 27  4  0
 26 28  4  0
M  END
$$$$

 Created by Python create_sdf_string function

 29 33  0  0  0  0  0  0  0  0999 V2000
    8.8270   -7.0288   18.4251 C   0  0  0  0  0  0  0  0  0  0  0  0
    9.1576   -4.6236   15.8860 O   0  0  0  0  0  0  0  0  0  0  0  0
    9.1509   -5.9108   17.7177 C   0  0  0  0  0  0  0  0  0  0  0  0
    3.6373   -9.5349   16.0582 N   0  0  0  0  0  0  0  0  0  0  0  0
    9.9275   -4.8001   18.0438 N   0  0  0  0  0  0  0  0  0  0  0  0
    8.5908   -5.7425   16.4412 C   0  0  0  0  0  0  0  0  0  0  0  0
   10.5993   -4.8981   21.6068 C   0  0  0  0  0  0  0  0  0  0  0  0
   10.4258   -3.0106   23.0998 C   0  0  0  0  0  0  0  0  0  0  0  0
   10.2148   -3.4364   25.4200 C   0  0  0  0  0  0  0  0  0  0  0  0
    9.7853   -1.1840   24.4927 C   0  0  0  0  0  0  0  0  0  0  0  0
    5.0276   -8.5227   17.5352 C   0  0  0  0  0  0  0  0  0  0  0  0
    9.8187   -2.0895   25.5800 C   0  0  0  0  0  0  0  0  0  0  0  0
    5.6473   -8.7216   15.3158 C   0  0  0  0  0  0  0  0  0  0  0  0
   10.7581   -3.1233   19.4720 N   0  0  0  0  0  0  0  0  0  0  0  0
    9.9571   -4.0573   16.8866 C   0  0  0  0  0  0  0  0  0  0  0  0
    7.6213   -6.5618   16.0087 C   0  0  0  0  0  0  0  0  0  0  0  0
   10.8583   -2.6527   20.7222 C   0  0  0  0  0  0  0  0  0  0  0  0
   10.6412   -3.5089   21.7936 C   0  0  0  0  0  0  0  0  0  0  0  0
   10.4972   -3.8968   24.1589 C   0  0  0  0  0  0  0  0  0  0  0  0
    5.9260   -8.2736   16.5517 C   0  0  0  0  0  0  0  0  0  0  0  0
    3.8816   -9.1166   17.2493 C   0  0  0  0  0  0  0  0  0  0  0  0
   10.1297   -1.6575   23.2324 C   0  0  0  0  0  0  0  0  0  0  0  0
    9.4684   -1.6929   26.7263 F   0  0  0  0  0  0  0  0  0  0  0  0
    7.7963   -7.7906   17.9837 C   0  0  0  0  0  0  0  0  0  0  0  0
   10.5884   -3.0725   16.7902 O   0  0  0  0  0  0  0  0  0  0  0  0
   10.4323   -5.3494   20.3516 C   0  0  0  0  0  0  0  0  0  0  0  0
    7.1156   -7.5454   16.8218 C   0  0  0  0  0  0  0  0  0  0  0  0
   10.3885   -4.4388   19.2773 C   0  0  0  0  0  0  0  0  0  0  0  0
    4.5160   -9.3822   15.0841 C   0  0  0  0  0  0  0  0  0  0  0  0
  1  3  4  0
  1 24  4  0
  2  6  4  0
  2 15  4  0
  3  5  4  0
  3  6  4  0
  4 21  4  0
  4 29  4  0
  5 15  4  0
  5 28  1  0
  6 16  4  0
  7 18  4  0
  7 26  4  0
  8 18  1  0
  8 19  4  0
  8 22  4  0
  9 12  4  0
  9 19  4  0
 10 12  4  0
 10 22  4  0
 11 20  4  0
 11 21  4  0
 12 23  1  0
 13 20  4  0
 13 29  4  0
 14 17  4  0
 14 28  4  0
 15 25  2  0
 16 27  4  0
 17 18  4  0
 20 27  1  0
 24 27  4  0
 26 28  4  0
M  END
$$$$

 Created by Python create_sdf_string function

 29 33  0  0  0  0  0  0  0  0999 V2000
    8.8270   -7.0288   18.4251 C   0  0  0  0  0  0  0  0  0  0  0  0
    9.1576   -4.6236   15.8860 O   0  0  0  0  0  0  0  0  0  0  0  0
    9.1509   -5.9108   17.7177 C   0  0  0  0  0  0  0  0  0  0  0  0
    3.6373   -9.5349   16.0582 N   0  0  0  0  0  0  0  0  0  0  0  0
    9.9275   -4.8001   18.0438 N   0  0  0  0  0  0  0  0  0  0  0  0
    8.5908   -5.7425   16.4412 C   0  0  0  0  0  0  0  0  0  0  0  0
   10.5993   -4.8981   21.6068 C   0  0  0  0  0  0  0  0  0  0  0  0
   10.4258   -3.0106   23.0998 C   0  0  0  0  0  0  0  0  0  0  0  0
   10.2148   -3.4364   25.4200 C   0  0  0  0  0  0  0  0  0  0  0  0
    9.7853   -1.1840   24.4927 C   0  0  0  0  0  0  0  0  0  0  0  0
    5.0276   -8.5227   17.5352 C   0  0  0  0  0  0  0  0  0  0  0  0
    9.8187   -2.0895   25.5800 C   0  0  0  0  0  0  0  0  0  0  0  0
    5.6473   -8.7216   15.3158 C   0  0  0  0  0  0  0  0  0  0  0  0
   10.7581   -3.1233   19.4720 N   0  0  0  0  0  0  0  0  0  0  0  0
    9.9571   -4.0573   16.8866 C   0  0  0  0  0  0  0  0  0  0  0  0
    7.6213   -6.5618   16.0087 C   0  0  0  0  0  0  0  0  0  0  0  0
   10.8583   -2.6527   20.7222 C   0  0  0  0  0  0  0  0  0  0  0  0
   10.6412   -3.5089   21.7936 C   0  0  0  0  0  0  0  0  0  0  0  0
   10.4972   -3.8968   24.1589 C   0  0  0  0  0  0  0  0  0  0  0  0
    5.9260   -8.2736   16.5517 C   0  0  0  0  0  0  0  0  0  0  0  0
    3.8816   -9.1166   17.2493 C   0  0  0  0  0  0  0  0  0  0  0  0
   10.1297   -1.6575   23.2324 C   0  0  0  0  0  0  0  0  0  0  0  0
    9.4684   -1.6929   26.7263 F   0  0  0  0  0  0  0  0  0  0  0  0
    7.7963   -7.7906   17.9837 C   0  0  0  0  0  0  0  0  0  0  0  0
   10.5884   -3.0725   16.7902 O   0  0  0  0  0  0  0  0  0  0  0  0
   10.4323   -5.3494   20.3516 C   0  0  0  0  0  0  0  0  0  0  0  0
    7.1156   -7.5454   16.8218 C   0  0  0  0  0  0  0  0  0  0  0  0
   10.3885   -4.4388   19.2773 C   0  0  0  0  0  0  0  0  0  0  0  0
    4.5160   -9.3822   15.0841 C   0  0  0  0  0  0  0  0  0  0  0  0
  1  3  4  0
  1 24  4  0
  2  6  4  0
  2 15  4  0
  3  5  4  0
  3  6  4  0
  4 21  4  0
  4 29  4  0
  5 15  4  0
  5 28  1  0
  6 16  4  0
  7 18  4  0
  7 26  4  0
  8 18  1  0
  8 19  4  0
  8 22  4  0
  9 12  4  0
  9 19  4  0
 10 12  4  0
 10 22  4  0
 11 20  4  0
 11 21  4  0
 12 23  1  0
 13 20  4  0
 13 29  4  0
 14 17  4  0
 14 28  4  0
 15 25  2  0
 16 27  4  0
 17 18  4  0
 20 27  1  0
 24 27  4  0
 26 28  4  0
M  END
$$$$

 Created by Python create_sdf_string function

 29 33  0  0  0  0  0  0  0  0999 V2000
    8.8270   -7.0288   18.4251 C   0  0  0  0  0  0  0  0  0  0  0  0
    9.1576   -4.6236   15.8860 O   0  0  0  0  0  0  0  0  0  0  0  0
    9.1509   -5.9108   17.7177 C   0  0  0  0  0  0  0  0  0  0  0  0
    3.6373   -9.5349   16.0582 N   0  0  0  0  0  0  0  0  0  0  0  0
    9.9275   -4.8001   18.0438 N   0  0  0  0  0  0  0  0  0  0  0  0
    8.5908   -5.7425   16.4412 C   0  0  0  0  0  0  0  0  0  0  0  0
   10.5993   -4.8981   21.6068 C   0  0  0  0  0  0  0  0  0  0  0  0
   10.4258   -3.0106   23.0998 C   0  0  0  0  0  0  0  0  0  0  0  0
   10.2148   -3.4364   25.4200 C   0  0  0  0  0  0  0  0  0  0  0  0
    9.7853   -1.1840   24.4927 C   0  0  0  0  0  0  0  0  0  0  0  0
    5.0276   -8.5227   17.5352 C   0  0  0  0  0  0  0  0  0  0  0  0
    9.8187   -2.0895   25.5800 C   0  0  0  0  0  0  0  0  0  0  0  0
    5.6473   -8.7216   15.3158 C   0  0  0  0  0  0  0  0  0  0  0  0
   10.7581   -3.1233   19.4720 N   0  0  0  0  0  0  0  0  0  0  0  0
    9.9571   -4.0573   16.8866 C   0  0  0  0  0  0  0  0  0  0  0  0
    7.6213   -6.5618   16.0087 C   0  0  0  0  0  0  0  0  0  0  0  0
   10.8583   -2.6527   20.7222 C   0  0  0  0  0  0  0  0  0  0  0  0
   10.6412   -3.5089   21.7936 C   0  0  0  0  0  0  0  0  0  0  0  0
   10.4972   -3.8968   24.1589 C   0  0  0  0  0  0  0  0  0  0  0  0
    5.9260   -8.2736   16.5517 C   0  0  0  0  0  0  0  0  0  0  0  0
    3.8816   -9.1166   17.2493 C   0  0  0  0  0  0  0  0  0  0  0  0
   10.1297   -1.6575   23.2324 C   0  0  0  0  0  0  0  0  0  0  0  0
    9.4684   -1.6929   26.7263 F   0  0  0  0  0  0  0  0  0  0  0  0
    7.7963   -7.7906   17.9837 C   0  0  0  0  0  0  0  0  0  0  0  0
   10.5884   -3.0725   16.7902 O   0  0  0  0  0  0  0  0  0  0  0  0
   10.4323   -5.3494   20.3516 C   0  0  0  0  0  0  0  0  0  0  0  0
    7.1156   -7.5454   16.8218 C   0  0  0  0  0  0  0  0  0  0  0  0
   10.3885   -4.4388   19.2773 C   0  0  0  0  0  0  0  0  0  0  0  0
    4.5160   -9.3822   15.0841 C   0  0  0  0  0  0  0  0  0  0  0  0
  1  3  4  0
  1 24  4  0
  2  6  4  0
  2 15  4  0
  3  5  4  0
  3  6  4  0
  4 21  4  0
  4 29  4  0
  5 15  4  0
  5 28  1  0
  6 16  4  0
  7 18  4  0
  7 26  4  0
  8 18  1  0
  8 19  4  0
  8 22  4  0
  9 12  4  0
  9 19  4  0
 10 12  4  0
 10 22  4  0
 11 20  4  0
 11 21  4  0
 12 23  1  0
 13 20  4  0
 13 29  4  0
 14 17  4  0
 14 28  4  0
 15 25  2  0
 16 27  4  0
 17 18  4  0
 20 27  1  0
 24 27  4  0
 26 28  4  0
M  END
$$$$

 Created by Python create_sdf_string function

 29 33  0  0  0  0  0  0  0  0999 V2000
    8.8270   -7.0288   18.4251 C   0  0  0  0  0  0  0  0  0  0  0  0
    9.1576   -4.6236   15.8860 O   0  0  0  0  0  0  0  0  0  0  0  0
    9.1509   -5.9108   17.7177 C   0  0  0  0  0  0  0  0  0  0  0  0
    3.6373   -9.5349   16.0582 N   0  0  0  0  0  0  0  0  0  0  0  0
    9.9275   -4.8001   18.0438 N   0  0  0  0  0  0  0  0  0  0  0  0
    8.5908   -5.7425   16.4412 C   0  0  0  0  0  0  0  0  0  0  0  0
   10.5993   -4.8981   21.6068 C   0  0  0  0  0  0  0  0  0  0  0  0
   10.4258   -3.0106   23.0998 C   0  0  0  0  0  0  0  0  0  0  0  0
   10.2148   -3.4364   25.4200 C   0  0  0  0  0  0  0  0  0  0  0  0
    9.7853   -1.1840   24.4927 C   0  0  0  0  0  0  0  0  0  0  0  0
    5.0276   -8.5227   17.5352 C   0  0  0  0  0  0  0  0  0  0  0  0
    9.8187   -2.0895   25.5800 C   0  0  0  0  0  0  0  0  0  0  0  0
    5.6473   -8.7216   15.3158 C   0  0  0  0  0  0  0  0  0  0  0  0
   10.7581   -3.1233   19.4720 N   0  0  0  0  0  0  0  0  0  0  0  0
    9.9571   -4.0573   16.8866 C   0  0  0  0  0  0  0  0  0  0  0  0
    7.6213   -6.5618   16.0087 C   0  0  0  0  0  0  0  0  0  0  0  0
   10.8583   -2.6527   20.7222 C   0  0  0  0  0  0  0  0  0  0  0  0
   10.6412   -3.5089   21.7936 C   0  0  0  0  0  0  0  0  0  0  0  0
   10.4972   -3.8968   24.1589 C   0  0  0  0  0  0  0  0  0  0  0  0
    5.9260   -8.2736   16.5517 C   0  0  0  0  0  0  0  0  0  0  0  0
    3.8816   -9.1166   17.2493 C   0  0  0  0  0  0  0  0  0  0  0  0
   10.1297   -1.6575   23.2324 C   0  0  0  0  0  0  0  0  0  0  0  0
    9.4684   -1.6929   26.7263 F   0  0  0  0  0  0  0  0  0  0  0  0
    7.7963   -7.7906   17.9837 C   0  0  0  0  0  0  0  0  0  0  0  0
   10.5884   -3.0725   16.7902 O   0  0  0  0  0  0  0  0  0  0  0  0
   10.4323   -5.3494   20.3516 C   0  0  0  0  0  0  0  0  0  0  0  0
    7.1156   -7.5454   16.8218 C   0  0  0  0  0  0  0  0  0  0  0  0
   10.3885   -4.4388   19.2773 C   0  0  0  0  0  0  0  0  0  0  0  0
    4.5160   -9.3822   15.0841 C   0  0  0  0  0  0  0  0  0  0  0  0
  1  3  4  0
  1 24  4  0
  2  6  4  0
  2 15  4  0
  3  5  4  0
  3  6  4  0
  4 21  4  0
  4 29  4  0
  5 15  4  0
  5 28  1  0
  6 16  4  0
  7 18  4  0
  7 26  4  0
  8 18  1  0
  8 19  4  0
  8 22  4  0
  9 12  4  0
  9 19  4  0
 10 12  4  0
 10 22  4  0
 11 20  4  0
 11 21  4  0
 12 23  1  0
 13 20  4  0
 13 29  4  0
 14 17  4  0
 14 28  4  0
 15 25  2  0
 16 27  4  0
 17 18  4  0
 20 27  1  0
 24 27  4  0
 26 28  4  0
M  END
$$$$

 Created by Python create_sdf_string function

 29 33  0  0  0  0  0  0  0  0999 V2000
    8.8270   -7.0288   18.4251 C   0  0  0  0  0  0  0  0  0  0  0  0
    9.1576   -4.6236   15.8860 O   0  0  0  0  0  0  0  0  0  0  0  0
    9.1509   -5.9108   17.7177 C   0  0  0  0  0  0  0  0  0  0  0  0
    3.6373   -9.5349   16.0582 N   0  0  0  0  0  0  0  0  0  0  0  0
    9.9275   -4.8001   18.0438 N   0  0  0  0  0  0  0  0  0  0  0  0
    8.5908   -5.7425   16.4412 C   0  0  0  0  0  0  0  0  0  0  0  0
   10.5993   -4.8981   21.6068 C   0  0  0  0  0  0  0  0  0  0  0  0
   10.4258   -3.0106   23.0998 C   0  0  0  0  0  0  0  0  0  0  0  0
   10.2148   -3.4364   25.4200 C   0  0  0  0  0  0  0  0  0  0  0  0
    9.7853   -1.1840   24.4927 C   0  0  0  0  0  0  0  0  0  0  0  0
    5.0276   -8.5227   17.5352 C   0  0  0  0  0  0  0  0  0  0  0  0
    9.8187   -2.0895   25.5800 C   0  0  0  0  0  0  0  0  0  0  0  0
    5.6473   -8.7216   15.3158 C   0  0  0  0  0  0  0  0  0  0  0  0
   10.7581   -3.1233   19.4720 N   0  0  0  0  0  0  0  0  0  0  0  0
    9.9571   -4.0573   16.8866 C   0  0  0  0  0  0  0  0  0  0  0  0
    7.6213   -6.5618   16.0087 C   0  0  0  0  0  0  0  0  0  0  0  0
   10.8583   -2.6527   20.7222 C   0  0  0  0  0  0  0  0  0  0  0  0
   10.6412   -3.5089   21.7936 C   0  0  0  0  0  0  0  0  0  0  0  0
   10.4972   -3.8968   24.1589 C   0  0  0  0  0  0  0  0  0  0  0  0
    5.9260   -8.2736   16.5517 C   0  0  0  0  0  0  0  0  0  0  0  0
    3.8816   -9.1166   17.2493 C   0  0  0  0  0  0  0  0  0  0  0  0
   10.1297   -1.6575   23.2324 C   0  0  0  0  0  0  0  0  0  0  0  0
    9.4684   -1.6929   26.7263 F   0  0  0  0  0  0  0  0  0  0  0  0
    7.7963   -7.7906   17.9837 C   0  0  0  0  0  0  0  0  0  0  0  0
   10.5884   -3.0725   16.7902 O   0  0  0  0  0  0  0  0  0  0  0  0
   10.4323   -5.3494   20.3516 C   0  0  0  0  0  0  0  0  0  0  0  0
    7.1156   -7.5454   16.8218 C   0  0  0  0  0  0  0  0  0  0  0  0
   10.3885   -4.4388   19.2773 C   0  0  0  0  0  0  0  0  0  0  0  0
    4.5160   -9.3822   15.0841 C   0  0  0  0  0  0  0  0  0  0  0  0
  1  3  4  0
  1 24  4  0
  2  6  4  0
  2 15  4  0
  3  5  4  0
  3  6  4  0
  4 21  4  0
  4 29  4  0
  5 15  4  0
  5 28  1  0
  6 16  4  0
  7 18  4  0
  7 26  4  0
  8 18  1  0
  8 19  4  0
  8 22  4  0
  9 12  4  0
  9 19  4  0
 10 12  4  0
 10 22  4  0
 11 20  4  0
 11 21  4  0
 12 23  1  0
 13 20  4  0
 13 29  4  0
 14 17  4  0
 14 28  4  0
 15 25  2  0
 16 27  4  0
 17 18  4  0
 20 27  1  0
 24 27  4  0
 26 28  4  0
M  END
$$$$

 Created by Python create_sdf_string function

 29 33  0  0  0  0  0  0  0  0999 V2000
    8.8270   -7.0288   18.4251 C   0  0  0  0  0  0  0  0  0  0  0  0
    9.1576   -4.6236   15.8860 O   0  0  0  0  0  0  0  0  0  0  0  0
    9.1509   -5.9108   17.7177 C   0  0  0  0  0  0  0  0  0  0  0  0
    3.6373   -9.5349   16.0582 N   0  0  0  0  0  0  0  0  0  0  0  0
    9.9275   -4.8001   18.0438 N   0  0  0  0  0  0  0  0  0  0  0  0
    8.5908   -5.7425   16.4412 C   0  0  0  0  0  0  0  0  0  0  0  0
   10.5993   -4.8981   21.6068 C   0  0  0  0  0  0  0  0  0  0  0  0
   10.4258   -3.0106   23.0998 C   0  0  0  0  0  0  0  0  0  0  0  0
   10.2148   -3.4364   25.4200 C   0  0  0  0  0  0  0  0  0  0  0  0
    9.7853   -1.1840   24.4927 C   0  0  0  0  0  0  0  0  0  0  0  0
    5.0276   -8.5227   17.5352 C   0  0  0  0  0  0  0  0  0  0  0  0
    9.8187   -2.0895   25.5800 C   0  0  0  0  0  0  0  0  0  0  0  0
    5.6473   -8.7216   15.3158 C   0  0  0  0  0  0  0  0  0  0  0  0
   10.7581   -3.1233   19.4720 N   0  0  0  0  0  0  0  0  0  0  0  0
    9.9571   -4.0573   16.8866 C   0  0  0  0  0  0  0  0  0  0  0  0
    7.6213   -6.5618   16.0087 C   0  0  0  0  0  0  0  0  0  0  0  0
   10.8583   -2.6527   20.7222 C   0  0  0  0  0  0  0  0  0  0  0  0
   10.6412   -3.5089   21.7936 C   0  0  0  0  0  0  0  0  0  0  0  0
   10.4972   -3.8968   24.1589 C   0  0  0  0  0  0  0  0  0  0  0  0
    5.9260   -8.2736   16.5517 C   0  0  0  0  0  0  0  0  0  0  0  0
    3.8816   -9.1166   17.2493 C   0  0  0  0  0  0  0  0  0  0  0  0
   10.1297   -1.6575   23.2324 C   0  0  0  0  0  0  0  0  0  0  0  0
    9.4684   -1.6929   26.7263 F   0  0  0  0  0  0  0  0  0  0  0  0
    7.7963   -7.7906   17.9837 C   0  0  0  0  0  0  0  0  0  0  0  0
   10.5884   -3.0725   16.7902 O   0  0  0  0  0  0  0  0  0  0  0  0
   10.4323   -5.3494   20.3516 C   0  0  0  0  0  0  0  0  0  0  0  0
    7.1156   -7.5454   16.8218 C   0  0  0  0  0  0  0  0  0  0  0  0
   10.3885   -4.4388   19.2773 C   0  0  0  0  0  0  0  0  0  0  0  0
    4.5160   -9.3822   15.0841 C   0  0  0  0  0  0  0  0  0  0  0  0
  1  3  4  0
  1 24  4  0
  2  6  4  0
  2 15  4  0
  3  5  4  0
  3  6  4  0
  4 21  4  0
  4 29  4  0
  5 15  4  0
  5 28  1  0
  6 16  4  0
  7 18  4  0
  7 26  4  0
  8 18  1  0
  8 19  4  0
  8 22  4  0
  9 12  4  0
  9 19  4  0
 10 12  4  0
 10 22  4  0
 11 20  4  0
 11 21  4  0
 12 23  1  0
 13 20  4  0
 13 29  4  0
 14 17  4  0
 14 28  4  0
 15 25  2  0
 16 27  4  0
 17 18  4  0
 20 27  1  0
 24 27  4  0
 26 28  4  0
M  END
$$$$

 Created by Python create_sdf_string function

 29 33  0  0  0  0  0  0  0  0999 V2000
    8.8270   -7.0288   18.4251 C   0  0  0  0  0  0  0  0  0  0  0  0
    9.1576   -4.6236   15.8860 O   0  0  0  0  0  0  0  0  0  0  0  0
    9.1509   -5.9108   17.7177 C   0  0  0  0  0  0  0  0  0  0  0  0
    3.6373   -9.5349   16.0582 N   0  0  0  0  0  0  0  0  0  0  0  0
    9.9275   -4.8001   18.0438 N   0  0  0  0  0  0  0  0  0  0  0  0
    8.5908   -5.7425   16.4412 C   0  0  0  0  0  0  0  0  0  0  0  0
   10.5993   -4.8981   21.6068 C   0  0  0  0  0  0  0  0  0  0  0  0
   10.4258   -3.0106   23.0998 C   0  0  0  0  0  0  0  0  0  0  0  0
   10.2148   -3.4364   25.4200 C   0  0  0  0  0  0  0  0  0  0  0  0
    9.7853   -1.1840   24.4927 C   0  0  0  0  0  0  0  0  0  0  0  0
    5.0276   -8.5227   17.5352 C   0  0  0  0  0  0  0  0  0  0  0  0
    9.8187   -2.0895   25.5800 C   0  0  0  0  0  0  0  0  0  0  0  0
    5.6473   -8.7216   15.3158 C   0  0  0  0  0  0  0  0  0  0  0  0
   10.7581   -3.1233   19.4720 N   0  0  0  0  0  0  0  0  0  0  0  0
    9.9571   -4.0573   16.8866 C   0  0  0  0  0  0  0  0  0  0  0  0
    7.6213   -6.5618   16.0087 C   0  0  0  0  0  0  0  0  0  0  0  0
   10.8583   -2.6527   20.7222 C   0  0  0  0  0  0  0  0  0  0  0  0
   10.6412   -3.5089   21.7936 C   0  0  0  0  0  0  0  0  0  0  0  0
   10.4972   -3.8968   24.1589 C   0  0  0  0  0  0  0  0  0  0  0  0
    5.9260   -8.2736   16.5517 C   0  0  0  0  0  0  0  0  0  0  0  0
    3.8816   -9.1166   17.2493 C   0  0  0  0  0  0  0  0  0  0  0  0
   10.1297   -1.6575   23.2324 C   0  0  0  0  0  0  0  0  0  0  0  0
    9.4684   -1.6929   26.7263 F   0  0  0  0  0  0  0  0  0  0  0  0
    7.7963   -7.7906   17.9837 C   0  0  0  0  0  0  0  0  0  0  0  0
   10.5884   -3.0725   16.7902 O   0  0  0  0  0  0  0  0  0  0  0  0
   10.4323   -5.3494   20.3516 C   0  0  0  0  0  0  0  0  0  0  0  0
    7.1156   -7.5454   16.8218 C   0  0  0  0  0  0  0  0  0  0  0  0
   10.3885   -4.4388   19.2773 C   0  0  0  0  0  0  0  0  0  0  0  0
    4.5160   -9.3822   15.0841 C   0  0  0  0  0  0  0  0  0  0  0  0
  1  3  4  0
  1 24  4  0
  2  6  4  0
  2 15  4  0
  3  5  4  0
  3  6  4  0
  4 21  4  0
  4 29  4  0
  5 15  4  0
  5 28  1  0
  6 16  4  0
  7 18  4  0
  7 26  4  0
  8 18  1  0
  8 19  4  0
  8 22  4  0
  9 12  4  0
  9 19  4  0
 10 12  4  0
 10 22  4  0
 11 20  4  0
 11 21  4  0
 12 23  1  0
 13 20  4  0
 13 29  4  0
 14 17  4  0
 14 28  4  0
 15 25  2  0
 16 27  4  0
 17 18  4  0
 20 27  1  0
 24 27  4  0
 26 28  4  0
M  END
$$$$

 Created by Python create_sdf_string function

 29 33  0  0  0  0  0  0  0  0999 V2000
    8.8270   -7.0288   18.4251 C   0  0  0  0  0  0  0  0  0  0  0  0
    9.1576   -4.6236   15.8860 O   0  0  0  0  0  0  0  0  0  0  0  0
    9.1509   -5.9108   17.7177 C   0  0  0  0  0  0  0  0  0  0  0  0
    3.6373   -9.5349   16.0582 N   0  0  0  0  0  0  0  0  0  0  0  0
    9.9275   -4.8001   18.0438 N   0  0  0  0  0  0  0  0  0  0  0  0
    8.5908   -5.7425   16.4412 C   0  0  0  0  0  0  0  0  0  0  0  0
   10.5993   -4.8981   21.6068 C   0  0  0  0  0  0  0  0  0  0  0  0
   10.4258   -3.0106   23.0998 C   0  0  0  0  0  0  0  0  0  0  0  0
   10.2148   -3.4364   25.4200 C   0  0  0  0  0  0  0  0  0  0  0  0
    9.7853   -1.1840   24.4927 C   0  0  0  0  0  0  0  0  0  0  0  0
    5.0276   -8.5227   17.5352 C   0  0  0  0  0  0  0  0  0  0  0  0
    9.8187   -2.0895   25.5800 C   0  0  0  0  0  0  0  0  0  0  0  0
    5.6473   -8.7216   15.3158 C   0  0  0  0  0  0  0  0  0  0  0  0
   10.7581   -3.1233   19.4720 N   0  0  0  0  0  0  0  0  0  0  0  0
    9.9571   -4.0573   16.8866 C   0  0  0  0  0  0  0  0  0  0  0  0
    7.6213   -6.5618   16.0087 C   0  0  0  0  0  0  0  0  0  0  0  0
   10.8583   -2.6527   20.7222 C   0  0  0  0  0  0  0  0  0  0  0  0
   10.6412   -3.5089   21.7936 C   0  0  0  0  0  0  0  0  0  0  0  0
   10.4972   -3.8968   24.1589 C   0  0  0  0  0  0  0  0  0  0  0  0
    5.9260   -8.2736   16.5517 C   0  0  0  0  0  0  0  0  0  0  0  0
    3.8816   -9.1166   17.2493 C   0  0  0  0  0  0  0  0  0  0  0  0
   10.1297   -1.6575   23.2324 C   0  0  0  0  0  0  0  0  0  0  0  0
    9.4684   -1.6929   26.7263 F   0  0  0  0  0  0  0  0  0  0  0  0
    7.7963   -7.7906   17.9837 C   0  0  0  0  0  0  0  0  0  0  0  0
   10.5884   -3.0725   16.7902 O   0  0  0  0  0  0  0  0  0  0  0  0
   10.4323   -5.3494   20.3516 C   0  0  0  0  0  0  0  0  0  0  0  0
    7.1156   -7.5454   16.8218 C   0  0  0  0  0  0  0  0  0  0  0  0
   10.3885   -4.4388   19.2773 C   0  0  0  0  0  0  0  0  0  0  0  0
    4.5160   -9.3822   15.0841 C   0  0  0  0  0  0  0  0  0  0  0  0
  1  3  4  0
  1 24  4  0
  2  6  4  0
  2 15  4  0
  3  5  4  0
  3  6  4  0
  4 21  4  0
  4 29  4  0
  5 15  4  0
  5 28  1  0
  6 16  4  0
  7 18  4  0
  7 26  4  0
  8 18  1  0
  8 19  4  0
  8 22  4  0
  9 12  4  0
  9 19  4  0
 10 12  4  0
 10 22  4  0
 11 20  4  0
 11 21  4  0
 12 23  1  0
 13 20  4  0
 13 29  4  0
 14 17  4  0
 14 28  4  0
 15 25  2  0
 16 27  4  0
 17 18  4  0
 20 27  1  0
 24 27  4  0
 26 28  4  0
M  END
$$$$

 Created by Python create_sdf_string function

 29 33  0  0  0  0  0  0  0  0999 V2000
    8.8270   -7.0288   18.4251 C   0  0  0  0  0  0  0  0  0  0  0  0
    9.1576   -4.6236   15.8860 O   0  0  0  0  0  0  0  0  0  0  0  0
    9.1509   -5.9108   17.7177 C   0  0  0  0  0  0  0  0  0  0  0  0
    3.6373   -9.5349   16.0582 N   0  0  0  0  0  0  0  0  0  0  0  0
    9.9275   -4.8001   18.0438 N   0  0  0  0  0  0  0  0  0  0  0  0
    8.5908   -5.7425   16.4412 C   0  0  0  0  0  0  0  0  0  0  0  0
   10.5993   -4.8981   21.6068 C   0  0  0  0  0  0  0  0  0  0  0  0
   10.4258   -3.0106   23.0998 C   0  0  0  0  0  0  0  0  0  0  0  0
   10.2148   -3.4364   25.4200 C   0  0  0  0  0  0  0  0  0  0  0  0
    9.7853   -1.1840   24.4927 C   0  0  0  0  0  0  0  0  0  0  0  0
    5.0276   -8.5227   17.5352 C   0  0  0  0  0  0  0  0  0  0  0  0
    9.8187   -2.0895   25.5800 C   0  0  0  0  0  0  0  0  0  0  0  0
    5.6473   -8.7216   15.3158 C   0  0  0  0  0  0  0  0  0  0  0  0
   10.7581   -3.1233   19.4720 N   0  0  0  0  0  0  0  0  0  0  0  0
    9.9571   -4.0573   16.8866 C   0  0  0  0  0  0  0  0  0  0  0  0
    7.6213   -6.5618   16.0087 C   0  0  0  0  0  0  0  0  0  0  0  0
   10.8583   -2.6527   20.7222 C   0  0  0  0  0  0  0  0  0  0  0  0
   10.6412   -3.5089   21.7936 C   0  0  0  0  0  0  0  0  0  0  0  0
   10.4972   -3.8968   24.1589 C   0  0  0  0  0  0  0  0  0  0  0  0
    5.9260   -8.2736   16.5517 C   0  0  0  0  0  0  0  0  0  0  0  0
    3.8816   -9.1166   17.2493 C   0  0  0  0  0  0  0  0  0  0  0  0
   10.1297   -1.6575   23.2324 C   0  0  0  0  0  0  0  0  0  0  0  0
    9.4684   -1.6929   26.7263 F   0  0  0  0  0  0  0  0  0  0  0  0
    7.7963   -7.7906   17.9837 C   0  0  0  0  0  0  0  0  0  0  0  0
   10.5884   -3.0725   16.7902 O   0  0  0  0  0  0  0  0  0  0  0  0
   10.4323   -5.3494   20.3516 C   0  0  0  0  0  0  0  0  0  0  0  0
    7.1156   -7.5454   16.8218 C   0  0  0  0  0  0  0  0  0  0  0  0
   10.3885   -4.4388   19.2773 C   0  0  0  0  0  0  0  0  0  0  0  0
    4.5160   -9.3822   15.0841 C   0  0  0  0  0  0  0  0  0  0  0  0
  1  3  4  0
  1 24  4  0
  2  6  4  0
  2 15  4  0
  3  5  4  0
  3  6  4  0
  4 21  4  0
  4 29  4  0
  5 15  4  0
  5 28  1  0
  6 16  4  0
  7 18  4  0
  7 26  4  0
  8 18  1  0
  8 19  4  0
  8 22  4  0
  9 12  4  0
  9 19  4  0
 10 12  4  0
 10 22  4  0
 11 20  4  0
 11 21  4  0
 12 23  1  0
 13 20  4  0
 13 29  4  0
 14 17  4  0
 14 28  4  0
 15 25  2  0
 16 27  4  0
 17 18  4  0
 20 27  1  0
 24 27  4  0
 26 28  4  0
M  END
$$$$

 Created by Python create_sdf_string function

 29 33  0  0  0  0  0  0  0  0999 V2000
    8.8270   -7.0288   18.4251 C   0  0  0  0  0  0  0  0  0  0  0  0
    9.1576   -4.6236   15.8860 O   0  0  0  0  0  0  0  0  0  0  0  0
    9.1509   -5.9108   17.7177 C   0  0  0  0  0  0  0  0  0  0  0  0
    3.6373   -9.5349   16.0582 N   0  0  0  0  0  0  0  0  0  0  0  0
    9.9275   -4.8001   18.0438 N   0  0  0  0  0  0  0  0  0  0  0  0
    8.5908   -5.7425   16.4412 C   0  0  0  0  0  0  0  0  0  0  0  0
   10.5993   -4.8981   21.6068 C   0  0  0  0  0  0  0  0  0  0  0  0
   10.4258   -3.0106   23.0998 C   0  0  0  0  0  0  0  0  0  0  0  0
   10.2148   -3.4364   25.4200 C   0  0  0  0  0  0  0  0  0  0  0  0
    9.7853   -1.1840   24.4927 C   0  0  0  0  0  0  0  0  0  0  0  0
    5.0276   -8.5227   17.5352 C   0  0  0  0  0  0  0  0  0  0  0  0
    9.8187   -2.0895   25.5800 C   0  0  0  0  0  0  0  0  0  0  0  0
    5.6473   -8.7216   15.3158 C   0  0  0  0  0  0  0  0  0  0  0  0
   10.7581   -3.1233   19.4720 N   0  0  0  0  0  0  0  0  0  0  0  0
    9.9571   -4.0573   16.8866 C   0  0  0  0  0  0  0  0  0  0  0  0
    7.6213   -6.5618   16.0087 C   0  0  0  0  0  0  0  0  0  0  0  0
   10.8583   -2.6527   20.7222 C   0  0  0  0  0  0  0  0  0  0  0  0
   10.6412   -3.5089   21.7936 C   0  0  0  0  0  0  0  0  0  0  0  0
   10.4972   -3.8968   24.1589 C   0  0  0  0  0  0  0  0  0  0  0  0
    5.9260   -8.2736   16.5517 C   0  0  0  0  0  0  0  0  0  0  0  0
    3.8816   -9.1166   17.2493 C   0  0  0  0  0  0  0  0  0  0  0  0
   10.1297   -1.6575   23.2324 C   0  0  0  0  0  0  0  0  0  0  0  0
    9.4684   -1.6929   26.7263 F   0  0  0  0  0  0  0  0  0  0  0  0
    7.7963   -7.7906   17.9837 C   0  0  0  0  0  0  0  0  0  0  0  0
   10.5884   -3.0725   16.7902 O   0  0  0  0  0  0  0  0  0  0  0  0
   10.4323   -5.3494   20.3516 C   0  0  0  0  0  0  0  0  0  0  0  0
    7.1156   -7.5454   16.8218 C   0  0  0  0  0  0  0  0  0  0  0  0
   10.3885   -4.4388   19.2773 C   0  0  0  0  0  0  0  0  0  0  0  0
    4.5160   -9.3822   15.0841 C   0  0  0  0  0  0  0  0  0  0  0  0
  1  3  4  0
  1 24  4  0
  2  6  4  0
  2 15  4  0
  3  5  4  0
  3  6  4  0
  4 21  4  0
  4 29  4  0
  5 15  4  0
  5 28  1  0
  6 16  4  0
  7 18  4  0
  7 26  4  0
  8 18  1  0
  8 19  4  0
  8 22  4  0
  9 12  4  0
  9 19  4  0
 10 12  4  0
 10 22  4  0
 11 20  4  0
 11 21  4  0
 12 23  1  0
 13 20  4  0
 13 29  4  0
 14 17  4  0
 14 28  4  0
 15 25  2  0
 16 27  4  0
 17 18  4  0
 20 27  1  0
 24 27  4  0
 26 28  4  0
M  END
$$$$

 Created by Python create_sdf_string function

 29 33  0  0  0  0  0  0  0  0999 V2000
    8.8270   -7.0288   18.4251 C   0  0  0  0  0  0  0  0  0  0  0  0
    9.1576   -4.6236   15.8860 O   0  0  0  0  0  0  0  0  0  0  0  0
    9.1509   -5.9108   17.7177 C   0  0  0  0  0  0  0  0  0  0  0  0
    3.6373   -9.5349   16.0582 N   0  0  0  0  0  0  0  0  0  0  0  0
    9.9275   -4.8001   18.0438 N   0  0  0  0  0  0  0  0  0  0  0  0
    8.5908   -5.7425   16.4412 C   0  0  0  0  0  0  0  0  0  0  0  0
   10.5993   -4.8981   21.6068 C   0  0  0  0  0  0  0  0  0  0  0  0
   10.4258   -3.0106   23.0998 C   0  0  0  0  0  0  0  0  0  0  0  0
   10.2148   -3.4364   25.4200 C   0  0  0  0  0  0  0  0  0  0  0  0
    9.7853   -1.1840   24.4927 C   0  0  0  0  0  0  0  0  0  0  0  0
    5.0276   -8.5227   17.5352 C   0  0  0  0  0  0  0  0  0  0  0  0
    9.8187   -2.0895   25.5800 C   0  0  0  0  0  0  0  0  0  0  0  0
    5.6473   -8.7216   15.3158 C   0  0  0  0  0  0  0  0  0  0  0  0
   10.7581   -3.1233   19.4720 N   0  0  0  0  0  0  0  0  0  0  0  0
    9.9571   -4.0573   16.8866 C   0  0  0  0  0  0  0  0  0  0  0  0
    7.6213   -6.5618   16.0087 C   0  0  0  0  0  0  0  0  0  0  0  0
   10.8583   -2.6527   20.7222 C   0  0  0  0  0  0  0  0  0  0  0  0
   10.6412   -3.5089   21.7936 C   0  0  0  0  0  0  0  0  0  0  0  0
   10.4972   -3.8968   24.1589 C   0  0  0  0  0  0  0  0  0  0  0  0
    5.9260   -8.2736   16.5517 C   0  0  0  0  0  0  0  0  0  0  0  0
    3.8816   -9.1166   17.2493 C   0  0  0  0  0  0  0  0  0  0  0  0
   10.1297   -1.6575   23.2324 C   0  0  0  0  0  0  0  0  0  0  0  0
    9.4684   -1.6929   26.7263 F   0  0  0  0  0  0  0  0  0  0  0  0
    7.7963   -7.7906   17.9837 C   0  0  0  0  0  0  0  0  0  0  0  0
   10.5884   -3.0725   16.7902 O   0  0  0  0  0  0  0  0  0  0  0  0
   10.4323   -5.3494   20.3516 C   0  0  0  0  0  0  0  0  0  0  0  0
    7.1156   -7.5454   16.8218 C   0  0  0  0  0  0  0  0  0  0  0  0
   10.3885   -4.4388   19.2773 C   0  0  0  0  0  0  0  0  0  0  0  0
    4.5160   -9.3822   15.0841 C   0  0  0  0  0  0  0  0  0  0  0  0
  1  3  4  0
  1 24  4  0
  2  6  4  0
  2 15  4  0
  3  5  4  0
  3  6  4  0
  4 21  4  0
  4 29  4  0
  5 15  4  0
  5 28  1  0
  6 16  4  0
  7 18  4  0
  7 26  4  0
  8 18  1  0
  8 19  4  0
  8 22  4  0
  9 12  4  0
  9 19  4  0
 10 12  4  0
 10 22  4  0
 11 20  4  0
 11 21  4  0
 12 23  1  0
 13 20  4  0
 13 29  4  0
 14 17  4  0
 14 28  4  0
 15 25  2  0
 16 27  4  0
 17 18  4  0
 20 27  1  0
 24 27  4  0
 26 28  4  0
M  END
$$$$

 Created by Python create_sdf_string function

 29 33  0  0  0  0  0  0  0  0999 V2000
    8.8270   -7.0288   18.4251 C   0  0  0  0  0  0  0  0  0  0  0  0
    9.1576   -4.6236   15.8860 O   0  0  0  0  0  0  0  0  0  0  0  0
    9.1509   -5.9108   17.7177 C   0  0  0  0  0  0  0  0  0  0  0  0
    3.6373   -9.5349   16.0582 N   0  0  0  0  0  0  0  0  0  0  0  0
    9.9275   -4.8001   18.0438 N   0  0  0  0  0  0  0  0  0  0  0  0
    8.5908   -5.7425   16.4412 C   0  0  0  0  0  0  0  0  0  0  0  0
   10.5993   -4.8981   21.6068 C   0  0  0  0  0  0  0  0  0  0  0  0
   10.4258   -3.0106   23.0998 C   0  0  0  0  0  0  0  0  0  0  0  0
   10.2148   -3.4364   25.4200 C   0  0  0  0  0  0  0  0  0  0  0  0
    9.7853   -1.1840   24.4927 C   0  0  0  0  0  0  0  0  0  0  0  0
    5.0276   -8.5227   17.5352 C   0  0  0  0  0  0  0  0  0  0  0  0
    9.8187   -2.0895   25.5800 C   0  0  0  0  0  0  0  0  0  0  0  0
    5.6473   -8.7216   15.3158 C   0  0  0  0  0  0  0  0  0  0  0  0
   10.7581   -3.1233   19.4720 N   0  0  0  0  0  0  0  0  0  0  0  0
    9.9571   -4.0573   16.8866 C   0  0  0  0  0  0  0  0  0  0  0  0
    7.6213   -6.5618   16.0087 C   0  0  0  0  0  0  0  0  0  0  0  0
   10.8583   -2.6527   20.7222 C   0  0  0  0  0  0  0  0  0  0  0  0
   10.6412   -3.5089   21.7936 C   0  0  0  0  0  0  0  0  0  0  0  0
   10.4972   -3.8968   24.1589 C   0  0  0  0  0  0  0  0  0  0  0  0
    5.9260   -8.2736   16.5517 C   0  0  0  0  0  0  0  0  0  0  0  0
    3.8816   -9.1166   17.2493 C   0  0  0  0  0  0  0  0  0  0  0  0
   10.1297   -1.6575   23.2324 C   0  0  0  0  0  0  0  0  0  0  0  0
    9.4684   -1.6929   26.7263 F   0  0  0  0  0  0  0  0  0  0  0  0
    7.7963   -7.7906   17.9837 C   0  0  0  0  0  0  0  0  0  0  0  0
   10.5884   -3.0725   16.7902 O   0  0  0  0  0  0  0  0  0  0  0  0
   10.4323   -5.3494   20.3516 C   0  0  0  0  0  0  0  0  0  0  0  0
    7.1156   -7.5454   16.8218 C   0  0  0  0  0  0  0  0  0  0  0  0
   10.3885   -4.4388   19.2773 C   0  0  0  0  0  0  0  0  0  0  0  0
    4.5160   -9.3822   15.0841 C   0  0  0  0  0  0  0  0  0  0  0  0
  1  3  4  0
  1 24  4  0
  2  6  4  0
  2 15  4  0
  3  5  4  0
  3  6  4  0
  4 21  4  0
  4 29  4  0
  5 15  4  0
  5 28  1  0
  6 16  4  0
  7 18  4  0
  7 26  4  0
  8 18  1  0
  8 19  4  0
  8 22  4  0
  9 12  4  0
  9 19  4  0
 10 12  4  0
 10 22  4  0
 11 20  4  0
 11 21  4  0
 12 23  1  0
 13 20  4  0
 13 29  4  0
 14 17  4  0
 14 28  4  0
 15 25  2  0
 16 27  4  0
 17 18  4  0
 20 27  1  0
 24 27  4  0
 26 28  4  0
M  END
$$$$

 Created by Python create_sdf_string function

 29 33  0  0  0  0  0  0  0  0999 V2000
    8.8270   -7.0288   18.4251 C   0  0  0  0  0  0  0  0  0  0  0  0
    9.1576   -4.6236   15.8860 O   0  0  0  0  0  0  0  0  0  0  0  0
    9.1509   -5.9108   17.7177 C   0  0  0  0  0  0  0  0  0  0  0  0
    3.6373   -9.5349   16.0582 N   0  0  0  0  0  0  0  0  0  0  0  0
    9.9275   -4.8001   18.0438 N   0  0  0  0  0  0  0  0  0  0  0  0
    8.5908   -5.7425   16.4412 C   0  0  0  0  0  0  0  0  0  0  0  0
   10.5993   -4.8981   21.6068 C   0  0  0  0  0  0  0  0  0  0  0  0
   10.4258   -3.0106   23.0998 C   0  0  0  0  0  0  0  0  0  0  0  0
   10.2148   -3.4364   25.4200 C   0  0  0  0  0  0  0  0  0  0  0  0
    9.7853   -1.1840   24.4927 C   0  0  0  0  0  0  0  0  0  0  0  0
    5.0276   -8.5227   17.5352 C   0  0  0  0  0  0  0  0  0  0  0  0
    9.8187   -2.0895   25.5800 C   0  0  0  0  0  0  0  0  0  0  0  0
    5.6473   -8.7216   15.3158 C   0  0  0  0  0  0  0  0  0  0  0  0
   10.7581   -3.1233   19.4720 N   0  0  0  0  0  0  0  0  0  0  0  0
    9.9571   -4.0573   16.8866 C   0  0  0  0  0  0  0  0  0  0  0  0
    7.6213   -6.5618   16.0087 C   0  0  0  0  0  0  0  0  0  0  0  0
   10.8583   -2.6527   20.7222 C   0  0  0  0  0  0  0  0  0  0  0  0
   10.6412   -3.5089   21.7936 C   0  0  0  0  0  0  0  0  0  0  0  0
   10.4972   -3.8968   24.1589 C   0  0  0  0  0  0  0  0  0  0  0  0
    5.9260   -8.2736   16.5517 C   0  0  0  0  0  0  0  0  0  0  0  0
    3.8816   -9.1166   17.2493 C   0  0  0  0  0  0  0  0  0  0  0  0
   10.1297   -1.6575   23.2324 C   0  0  0  0  0  0  0  0  0  0  0  0
    9.4684   -1.6929   26.7263 F   0  0  0  0  0  0  0  0  0  0  0  0
    7.7963   -7.7906   17.9837 C   0  0  0  0  0  0  0  0  0  0  0  0
   10.5884   -3.0725   16.7902 O   0  0  0  0  0  0  0  0  0  0  0  0
   10.4323   -5.3494   20.3516 C   0  0  0  0  0  0  0  0  0  0  0  0
    7.1156   -7.5454   16.8218 C   0  0  0  0  0  0  0  0  0  0  0  0
   10.3885   -4.4388   19.2773 C   0  0  0  0  0  0  0  0  0  0  0  0
    4.5160   -9.3822   15.0841 C   0  0  0  0  0  0  0  0  0  0  0  0
  1  3  4  0
  1 24  4  0
  2  6  4  0
  2 15  4  0
  3  5  4  0
  3  6  4  0
  4 21  4  0
  4 29  4  0
  5 15  4  0
  5 28  1  0
  6 16  4  0
  7 18  4  0
  7 26  4  0
  8 18  1  0
  8 19  4  0
  8 22  4  0
  9 12  4  0
  9 19  4  0
 10 12  4  0
 10 22  4  0
 11 20  4  0
 11 21  4  0
 12 23  1  0
 13 20  4  0
 13 29  4  0
 14 17  4  0
 14 28  4  0
 15 25  2  0
 16 27  4  0
 17 18  4  0
 20 27  1  0
 24 27  4  0
 26 28  4  0
M  END
$$$$

 Created by Python create_sdf_string function

 29 33  0  0  0  0  0  0  0  0999 V2000
    8.8270   -7.0288   18.4251 C   0  0  0  0  0  0  0  0  0  0  0  0
    9.1576   -4.6236   15.8860 O   0  0  0  0  0  0  0  0  0  0  0  0
    9.1509   -5.9108   17.7177 C   0  0  0  0  0  0  0  0  0  0  0  0
    3.6373   -9.5349   16.0582 N   0  0  0  0  0  0  0  0  0  0  0  0
    9.9275   -4.8001   18.0438 N   0  0  0  0  0  0  0  0  0  0  0  0
    8.5908   -5.7425   16.4412 C   0  0  0  0  0  0  0  0  0  0  0  0
   10.5993   -4.8981   21.6068 C   0  0  0  0  0  0  0  0  0  0  0  0
   10.4258   -3.0106   23.0998 C   0  0  0  0  0  0  0  0  0  0  0  0
   10.2148   -3.4364   25.4200 C   0  0  0  0  0  0  0  0  0  0  0  0
    9.7853   -1.1840   24.4927 C   0  0  0  0  0  0  0  0  0  0  0  0
    5.0276   -8.5227   17.5352 C   0  0  0  0  0  0  0  0  0  0  0  0
    9.8187   -2.0895   25.5800 C   0  0  0  0  0  0  0  0  0  0  0  0
    5.6473   -8.7216   15.3158 C   0  0  0  0  0  0  0  0  0  0  0  0
   10.7581   -3.1233   19.4720 N   0  0  0  0  0  0  0  0  0  0  0  0
    9.9571   -4.0573   16.8866 C   0  0  0  0  0  0  0  0  0  0  0  0
    7.6213   -6.5618   16.0087 C   0  0  0  0  0  0  0  0  0  0  0  0
   10.8583   -2.6527   20.7222 C   0  0  0  0  0  0  0  0  0  0  0  0
   10.6412   -3.5089   21.7936 C   0  0  0  0  0  0  0  0  0  0  0  0
   10.4972   -3.8968   24.1589 C   0  0  0  0  0  0  0  0  0  0  0  0
    5.9260   -8.2736   16.5517 C   0  0  0  0  0  0  0  0  0  0  0  0
    3.8816   -9.1166   17.2493 C   0  0  0  0  0  0  0  0  0  0  0  0
   10.1297   -1.6575   23.2324 C   0  0  0  0  0  0  0  0  0  0  0  0
    9.4684   -1.6929   26.7263 F   0  0  0  0  0  0  0  0  0  0  0  0
    7.7963   -7.7906   17.9837 C   0  0  0  0  0  0  0  0  0  0  0  0
   10.5884   -3.0725   16.7902 O   0  0  0  0  0  0  0  0  0  0  0  0
   10.4323   -5.3494   20.3516 C   0  0  0  0  0  0  0  0  0  0  0  0
    7.1156   -7.5454   16.8218 C   0  0  0  0  0  0  0  0  0  0  0  0
   10.3885   -4.4388   19.2773 C   0  0  0  0  0  0  0  0  0  0  0  0
    4.5160   -9.3822   15.0841 C   0  0  0  0  0  0  0  0  0  0  0  0
  1  3  4  0
  1 24  4  0
  2  6  4  0
  2 15  4  0
  3  5  4  0
  3  6  4  0
  4 21  4  0
  4 29  4  0
  5 15  4  0
  5 28  1  0
  6 16  4  0
  7 18  4  0
  7 26  4  0
  8 18  1  0
  8 19  4  0
  8 22  4  0
  9 12  4  0
  9 19  4  0
 10 12  4  0
 10 22  4  0
 11 20  4  0
 11 21  4  0
 12 23  1  0
 13 20  4  0
 13 29  4  0
 14 17  4  0
 14 28  4  0
 15 25  2  0
 16 27  4  0
 17 18  4  0
 20 27  1  0
 24 27  4  0
 26 28  4  0
M  END
$$$$

 Created by Python create_sdf_string function

 29 33  0  0  0  0  0  0  0  0999 V2000
    8.8270   -7.0288   18.4251 C   0  0  0  0  0  0  0  0  0  0  0  0
    9.1576   -4.6236   15.8860 O   0  0  0  0  0  0  0  0  0  0  0  0
    9.1509   -5.9108   17.7177 C   0  0  0  0  0  0  0  0  0  0  0  0
    3.6373   -9.5349   16.0582 N   0  0  0  0  0  0  0  0  0  0  0  0
    9.9275   -4.8001   18.0438 N   0  0  0  0  0  0  0  0  0  0  0  0
    8.5908   -5.7425   16.4412 C   0  0  0  0  0  0  0  0  0  0  0  0
   10.5993   -4.8981   21.6068 C   0  0  0  0  0  0  0  0  0  0  0  0
   10.4258   -3.0106   23.0998 C   0  0  0  0  0  0  0  0  0  0  0  0
   10.2148   -3.4364   25.4200 C   0  0  0  0  0  0  0  0  0  0  0  0
    9.7853   -1.1840   24.4927 C   0  0  0  0  0  0  0  0  0  0  0  0
    5.0276   -8.5227   17.5352 C   0  0  0  0  0  0  0  0  0  0  0  0
    9.8187   -2.0895   25.5800 C   0  0  0  0  0  0  0  0  0  0  0  0
    5.6473   -8.7216   15.3158 C   0  0  0  0  0  0  0  0  0  0  0  0
   10.7581   -3.1233   19.4720 N   0  0  0  0  0  0  0  0  0  0  0  0
    9.9571   -4.0573   16.8866 C   0  0  0  0  0  0  0  0  0  0  0  0
    7.6213   -6.5618   16.0087 C   0  0  0  0  0  0  0  0  0  0  0  0
   10.8583   -2.6527   20.7222 C   0  0  0  0  0  0  0  0  0  0  0  0
   10.6412   -3.5089   21.7936 C   0  0  0  0  0  0  0  0  0  0  0  0
   10.4972   -3.8968   24.1589 C   0  0  0  0  0  0  0  0  0  0  0  0
    5.9260   -8.2736   16.5517 C   0  0  0  0  0  0  0  0  0  0  0  0
    3.8816   -9.1166   17.2493 C   0  0  0  0  0  0  0  0  0  0  0  0
   10.1297   -1.6575   23.2324 C   0  0  0  0  0  0  0  0  0  0  0  0
    9.4684   -1.6929   26.7263 F   0  0  0  0  0  0  0  0  0  0  0  0
    7.7963   -7.7906   17.9837 C   0  0  0  0  0  0  0  0  0  0  0  0
   10.5884   -3.0725   16.7902 O   0  0  0  0  0  0  0  0  0  0  0  0
   10.4323   -5.3494   20.3516 C   0  0  0  0  0  0  0  0  0  0  0  0
    7.1156   -7.5454   16.8218 C   0  0  0  0  0  0  0  0  0  0  0  0
   10.3885   -4.4388   19.2773 C   0  0  0  0  0  0  0  0  0  0  0  0
    4.5160   -9.3822   15.0841 C   0  0  0  0  0  0  0  0  0  0  0  0
  1  3  4  0
  1 24  4  0
  2  6  4  0
  2 15  4  0
  3  5  4  0
  3  6  4  0
  4 21  4  0
  4 29  4  0
  5 15  4  0
  5 28  1  0
  6 16  4  0
  7 18  4  0
  7 26  4  0
  8 18  1  0
  8 19  4  0
  8 22  4  0
  9 12  4  0
  9 19  4  0
 10 12  4  0
 10 22  4  0
 11 20  4  0
 11 21  4  0
 12 23  1  0
 13 20  4  0
 13 29  4  0
 14 17  4  0
 14 28  4  0
 15 25  2  0
 16 27  4  0
 17 18  4  0
 20 27  1  0
 24 27  4  0
 26 28  4  0
M  END
$$$$

 Created by Python create_sdf_string function

 29 33  0  0  0  0  0  0  0  0999 V2000
    8.8270   -7.0288   18.4251 C   0  0  0  0  0  0  0  0  0  0  0  0
    9.1576   -4.6236   15.8860 O   0  0  0  0  0  0  0  0  0  0  0  0
    9.1509   -5.9108   17.7177 C   0  0  0  0  0  0  0  0  0  0  0  0
    3.6373   -9.5349   16.0582 N   0  0  0  0  0  0  0  0  0  0  0  0
    9.9275   -4.8001   18.0438 N   0  0  0  0  0  0  0  0  0  0  0  0
    8.5908   -5.7425   16.4412 C   0  0  0  0  0  0  0  0  0  0  0  0
   10.5993   -4.8981   21.6068 C   0  0  0  0  0  0  0  0  0  0  0  0
   10.4258   -3.0106   23.0998 C   0  0  0  0  0  0  0  0  0  0  0  0
   10.2148   -3.4364   25.4200 C   0  0  0  0  0  0  0  0  0  0  0  0
    9.7853   -1.1840   24.4927 C   0  0  0  0  0  0  0  0  0  0  0  0
    5.0276   -8.5227   17.5352 C   0  0  0  0  0  0  0  0  0  0  0  0
    9.8187   -2.0895   25.5800 C   0  0  0  0  0  0  0  0  0  0  0  0
    5.6473   -8.7216   15.3158 C   0  0  0  0  0  0  0  0  0  0  0  0
   10.7581   -3.1233   19.4720 N   0  0  0  0  0  0  0  0  0  0  0  0
    9.9571   -4.0573   16.8866 C   0  0  0  0  0  0  0  0  0  0  0  0
    7.6213   -6.5618   16.0087 C   0  0  0  0  0  0  0  0  0  0  0  0
   10.8583   -2.6527   20.7222 C   0  0  0  0  0  0  0  0  0  0  0  0
   10.6412   -3.5089   21.7936 C   0  0  0  0  0  0  0  0  0  0  0  0
   10.4972   -3.8968   24.1589 C   0  0  0  0  0  0  0  0  0  0  0  0
    5.9260   -8.2736   16.5517 C   0  0  0  0  0  0  0  0  0  0  0  0
    3.8816   -9.1166   17.2493 C   0  0  0  0  0  0  0  0  0  0  0  0
   10.1297   -1.6575   23.2324 C   0  0  0  0  0  0  0  0  0  0  0  0
    9.4684   -1.6929   26.7263 F   0  0  0  0  0  0  0  0  0  0  0  0
    7.7963   -7.7906   17.9837 C   0  0  0  0  0  0  0  0  0  0  0  0
   10.5884   -3.0725   16.7902 O   0  0  0  0  0  0  0  0  0  0  0  0
   10.4323   -5.3494   20.3516 C   0  0  0  0  0  0  0  0  0  0  0  0
    7.1156   -7.5454   16.8218 C   0  0  0  0  0  0  0  0  0  0  0  0
   10.3885   -4.4388   19.2773 C   0  0  0  0  0  0  0  0  0  0  0  0
    4.5160   -9.3822   15.0841 C   0  0  0  0  0  0  0  0  0  0  0  0
  1  3  4  0
  1 24  4  0
  2  6  4  0
  2 15  4  0
  3  5  4  0
  3  6  4  0
  4 21  4  0
  4 29  4  0
  5 15  4  0
  5 28  1  0
  6 16  4  0
  7 18  4  0
  7 26  4  0
  8 18  1  0
  8 19  4  0
  8 22  4  0
  9 12  4  0
  9 19  4  0
 10 12  4  0
 10 22  4  0
 11 20  4  0
 11 21  4  0
 12 23  1  0
 13 20  4  0
 13 29  4  0
 14 17  4  0
 14 28  4  0
 15 25  2  0
 16 27  4  0
 17 18  4  0
 20 27  1  0
 24 27  4  0
 26 28  4  0
M  END
$$$$

 Created by Python create_sdf_string function

 29 33  0  0  0  0  0  0  0  0999 V2000
    8.8270   -7.0288   18.4251 C   0  0  0  0  0  0  0  0  0  0  0  0
    9.1576   -4.6236   15.8860 O   0  0  0  0  0  0  0  0  0  0  0  0
    9.1509   -5.9108   17.7177 C   0  0  0  0  0  0  0  0  0  0  0  0
    3.6373   -9.5349   16.0582 N   0  0  0  0  0  0  0  0  0  0  0  0
    9.9275   -4.8001   18.0438 N   0  0  0  0  0  0  0  0  0  0  0  0
    8.5908   -5.7425   16.4412 C   0  0  0  0  0  0  0  0  0  0  0  0
   10.5993   -4.8981   21.6068 C   0  0  0  0  0  0  0  0  0  0  0  0
   10.4258   -3.0106   23.0998 C   0  0  0  0  0  0  0  0  0  0  0  0
   10.2148   -3.4364   25.4200 C   0  0  0  0  0  0  0  0  0  0  0  0
    9.7853   -1.1840   24.4927 C   0  0  0  0  0  0  0  0  0  0  0  0
    5.0276   -8.5227   17.5352 C   0  0  0  0  0  0  0  0  0  0  0  0
    9.8187   -2.0895   25.5800 C   0  0  0  0  0  0  0  0  0  0  0  0
    5.6473   -8.7216   15.3158 C   0  0  0  0  0  0  0  0  0  0  0  0
   10.7581   -3.1233   19.4720 N   0  0  0  0  0  0  0  0  0  0  0  0
    9.9571   -4.0573   16.8866 C   0  0  0  0  0  0  0  0  0  0  0  0
    7.6213   -6.5618   16.0087 C   0  0  0  0  0  0  0  0  0  0  0  0
   10.8583   -2.6527   20.7222 C   0  0  0  0  0  0  0  0  0  0  0  0
   10.6412   -3.5089   21.7936 C   0  0  0  0  0  0  0  0  0  0  0  0
   10.4972   -3.8968   24.1589 C   0  0  0  0  0  0  0  0  0  0  0  0
    5.9260   -8.2736   16.5517 C   0  0  0  0  0  0  0  0  0  0  0  0
    3.8816   -9.1166   17.2493 C   0  0  0  0  0  0  0  0  0  0  0  0
   10.1297   -1.6575   23.2324 C   0  0  0  0  0  0  0  0  0  0  0  0
    9.4684   -1.6929   26.7263 F   0  0  0  0  0  0  0  0  0  0  0  0
    7.7963   -7.7906   17.9837 C   0  0  0  0  0  0  0  0  0  0  0  0
   10.5884   -3.0725   16.7902 O   0  0  0  0  0  0  0  0  0  0  0  0
   10.4323   -5.3494   20.3516 C   0  0  0  0  0  0  0  0  0  0  0  0
    7.1156   -7.5454   16.8218 C   0  0  0  0  0  0  0  0  0  0  0  0
   10.3885   -4.4388   19.2773 C   0  0  0  0  0  0  0  0  0  0  0  0
    4.5160   -9.3822   15.0841 C   0  0  0  0  0  0  0  0  0  0  0  0
  1  3  4  0
  1 24  4  0
  2  6  4  0
  2 15  4  0
  3  5  4  0
  3  6  4  0
  4 21  4  0
  4 29  4  0
  5 15  4  0
  5 28  1  0
  6 16  4  0
  7 18  4  0
  7 26  4  0
  8 18  1  0
  8 19  4  0
  8 22  4  0
  9 12  4  0
  9 19  4  0
 10 12  4  0
 10 22  4  0
 11 20  4  0
 11 21  4  0
 12 23  1  0
 13 20  4  0
 13 29  4  0
 14 17  4  0
 14 28  4  0
 15 25  2  0
 16 27  4  0
 17 18  4  0
 20 27  1  0
 24 27  4  0
 26 28  4  0
M  END
$$$$

 Created by Python create_sdf_string function

 29 33  0  0  0  0  0  0  0  0999 V2000
    8.8270   -7.0288   18.4251 C   0  0  0  0  0  0  0  0  0  0  0  0
    9.1576   -4.6236   15.8860 O   0  0  0  0  0  0  0  0  0  0  0  0
    9.1509   -5.9108   17.7177 C   0  0  0  0  0  0  0  0  0  0  0  0
    3.6373   -9.5349   16.0582 N   0  0  0  0  0  0  0  0  0  0  0  0
    9.9275   -4.8001   18.0438 N   0  0  0  0  0  0  0  0  0  0  0  0
    8.5908   -5.7425   16.4412 C   0  0  0  0  0  0  0  0  0  0  0  0
   10.5993   -4.8981   21.6068 C   0  0  0  0  0  0  0  0  0  0  0  0
   10.4258   -3.0106   23.0998 C   0  0  0  0  0  0  0  0  0  0  0  0
   10.2148   -3.4364   25.4200 C   0  0  0  0  0  0  0  0  0  0  0  0
    9.7853   -1.1840   24.4927 C   0  0  0  0  0  0  0  0  0  0  0  0
    5.0276   -8.5227   17.5352 C   0  0  0  0  0  0  0  0  0  0  0  0
    9.8187   -2.0895   25.5800 C   0  0  0  0  0  0  0  0  0  0  0  0
    5.6473   -8.7216   15.3158 C   0  0  0  0  0  0  0  0  0  0  0  0
   10.7581   -3.1233   19.4720 N   0  0  0  0  0  0  0  0  0  0  0  0
    9.9571   -4.0573   16.8866 C   0  0  0  0  0  0  0  0  0  0  0  0
    7.6213   -6.5618   16.0087 C   0  0  0  0  0  0  0  0  0  0  0  0
   10.8583   -2.6527   20.7222 C   0  0  0  0  0  0  0  0  0  0  0  0
   10.6412   -3.5089   21.7936 C   0  0  0  0  0  0  0  0  0  0  0  0
   10.4972   -3.8968   24.1589 C   0  0  0  0  0  0  0  0  0  0  0  0
    5.9260   -8.2736   16.5517 C   0  0  0  0  0  0  0  0  0  0  0  0
    3.8816   -9.1166   17.2493 C   0  0  0  0  0  0  0  0  0  0  0  0
   10.1297   -1.6575   23.2324 C   0  0  0  0  0  0  0  0  0  0  0  0
    9.4684   -1.6929   26.7263 F   0  0  0  0  0  0  0  0  0  0  0  0
    7.7963   -7.7906   17.9837 C   0  0  0  0  0  0  0  0  0  0  0  0
   10.5884   -3.0725   16.7902 O   0  0  0  0  0  0  0  0  0  0  0  0
   10.4323   -5.3494   20.3516 C   0  0  0  0  0  0  0  0  0  0  0  0
    7.1156   -7.5454   16.8218 C   0  0  0  0  0  0  0  0  0  0  0  0
   10.3885   -4.4388   19.2773 C   0  0  0  0  0  0  0  0  0  0  0  0
    4.5160   -9.3822   15.0841 C   0  0  0  0  0  0  0  0  0  0  0  0
  1  3  4  0
  1 24  4  0
  2  6  4  0
  2 15  4  0
  3  5  4  0
  3  6  4  0
  4 21  4  0
  4 29  4  0
  5 15  4  0
  5 28  1  0
  6 16  4  0
  7 18  4  0
  7 26  4  0
  8 18  1  0
  8 19  4  0
  8 22  4  0
  9 12  4  0
  9 19  4  0
 10 12  4  0
 10 22  4  0
 11 20  4  0
 11 21  4  0
 12 23  1  0
 13 20  4  0
 13 29  4  0
 14 17  4  0
 14 28  4  0
 15 25  2  0
 16 27  4  0
 17 18  4  0
 20 27  1  0
 24 27  4  0
 26 28  4  0
M  END
$$$$

 Created by Python create_sdf_string function

 29 33  0  0  0  0  0  0  0  0999 V2000
    8.8270   -7.0288   18.4251 C   0  0  0  0  0  0  0  0  0  0  0  0
    9.1576   -4.6236   15.8860 O   0  0  0  0  0  0  0  0  0  0  0  0
    9.1509   -5.9108   17.7177 C   0  0  0  0  0  0  0  0  0  0  0  0
    3.6373   -9.5349   16.0582 N   0  0  0  0  0  0  0  0  0  0  0  0
    9.9275   -4.8001   18.0438 N   0  0  0  0  0  0  0  0  0  0  0  0
    8.5908   -5.7425   16.4412 C   0  0  0  0  0  0  0  0  0  0  0  0
   10.5993   -4.8981   21.6068 C   0  0  0  0  0  0  0  0  0  0  0  0
   10.4258   -3.0106   23.0998 C   0  0  0  0  0  0  0  0  0  0  0  0
   10.2148   -3.4364   25.4200 C   0  0  0  0  0  0  0  0  0  0  0  0
    9.7853   -1.1840   24.4927 C   0  0  0  0  0  0  0  0  0  0  0  0
    5.0276   -8.5227   17.5352 C   0  0  0  0  0  0  0  0  0  0  0  0
    9.8187   -2.0895   25.5800 C   0  0  0  0  0  0  0  0  0  0  0  0
    5.6473   -8.7216   15.3158 C   0  0  0  0  0  0  0  0  0  0  0  0
   10.7581   -3.1233   19.4720 N   0  0  0  0  0  0  0  0  0  0  0  0
    9.9571   -4.0573   16.8866 C   0  0  0  0  0  0  0  0  0  0  0  0
    7.6213   -6.5618   16.0087 C   0  0  0  0  0  0  0  0  0  0  0  0
   10.8583   -2.6527   20.7222 C   0  0  0  0  0  0  0  0  0  0  0  0
   10.6412   -3.5089   21.7936 C   0  0  0  0  0  0  0  0  0  0  0  0
   10.4972   -3.8968   24.1589 C   0  0  0  0  0  0  0  0  0  0  0  0
    5.9260   -8.2736   16.5517 C   0  0  0  0  0  0  0  0  0  0  0  0
    3.8816   -9.1166   17.2493 C   0  0  0  0  0  0  0  0  0  0  0  0
   10.1297   -1.6575   23.2324 C   0  0  0  0  0  0  0  0  0  0  0  0
    9.4684   -1.6929   26.7263 F   0  0  0  0  0  0  0  0  0  0  0  0
    7.7963   -7.7906   17.9837 C   0  0  0  0  0  0  0  0  0  0  0  0
   10.5884   -3.0725   16.7902 O   0  0  0  0  0  0  0  0  0  0  0  0
   10.4323   -5.3494   20.3516 C   0  0  0  0  0  0  0  0  0  0  0  0
    7.1156   -7.5454   16.8218 C   0  0  0  0  0  0  0  0  0  0  0  0
   10.3885   -4.4388   19.2773 C   0  0  0  0  0  0  0  0  0  0  0  0
    4.5160   -9.3822   15.0841 C   0  0  0  0  0  0  0  0  0  0  0  0
  1  3  4  0
  1 24  4  0
  2  6  4  0
  2 15  4  0
  3  5  4  0
  3  6  4  0
  4 21  4  0
  4 29  4  0
  5 15  4  0
  5 28  1  0
  6 16  4  0
  7 18  4  0
  7 26  4  0
  8 18  1  0
  8 19  4  0
  8 22  4  0
  9 12  4  0
  9 19  4  0
 10 12  4  0
 10 22  4  0
 11 20  4  0
 11 21  4  0
 12 23  1  0
 13 20  4  0
 13 29  4  0
 14 17  4  0
 14 28  4  0
 15 25  2  0
 16 27  4  0
 17 18  4  0
 20 27  1  0
 24 27  4  0
 26 28  4  0
M  END
$$$$

 Created by Python create_sdf_string function

 29 33  0  0  0  0  0  0  0  0999 V2000
    8.8270   -7.0288   18.4251 C   0  0  0  0  0  0  0  0  0  0  0  0
    9.1576   -4.6236   15.8860 O   0  0  0  0  0  0  0  0  0  0  0  0
    9.1509   -5.9108   17.7177 C   0  0  0  0  0  0  0  0  0  0  0  0
    3.6373   -9.5349   16.0582 N   0  0  0  0  0  0  0  0  0  0  0  0
    9.9275   -4.8001   18.0438 N   0  0  0  0  0  0  0  0  0  0  0  0
    8.5908   -5.7425   16.4412 C   0  0  0  0  0  0  0  0  0  0  0  0
   10.5993   -4.8981   21.6068 C   0  0  0  0  0  0  0  0  0  0  0  0
   10.4258   -3.0106   23.0998 C   0  0  0  0  0  0  0  0  0  0  0  0
   10.2148   -3.4364   25.4200 C   0  0  0  0  0  0  0  0  0  0  0  0
    9.7853   -1.1840   24.4927 C   0  0  0  0  0  0  0  0  0  0  0  0
    5.0276   -8.5227   17.5352 C   0  0  0  0  0  0  0  0  0  0  0  0
    9.8187   -2.0895   25.5800 C   0  0  0  0  0  0  0  0  0  0  0  0
    5.6473   -8.7216   15.3158 C   0  0  0  0  0  0  0  0  0  0  0  0
   10.7581   -3.1233   19.4720 N   0  0  0  0  0  0  0  0  0  0  0  0
    9.9571   -4.0573   16.8866 C   0  0  0  0  0  0  0  0  0  0  0  0
    7.6213   -6.5618   16.0087 C   0  0  0  0  0  0  0  0  0  0  0  0
   10.8583   -2.6527   20.7222 C   0  0  0  0  0  0  0  0  0  0  0  0
   10.6412   -3.5089   21.7936 C   0  0  0  0  0  0  0  0  0  0  0  0
   10.4972   -3.8968   24.1589 C   0  0  0  0  0  0  0  0  0  0  0  0
    5.9260   -8.2736   16.5517 C   0  0  0  0  0  0  0  0  0  0  0  0
    3.8816   -9.1166   17.2493 C   0  0  0  0  0  0  0  0  0  0  0  0
   10.1297   -1.6575   23.2324 C   0  0  0  0  0  0  0  0  0  0  0  0
    9.4684   -1.6929   26.7263 F   0  0  0  0  0  0  0  0  0  0  0  0
    7.7963   -7.7906   17.9837 C   0  0  0  0  0  0  0  0  0  0  0  0
   10.5884   -3.0725   16.7902 O   0  0  0  0  0  0  0  0  0  0  0  0
   10.4323   -5.3494   20.3516 C   0  0  0  0  0  0  0  0  0  0  0  0
    7.1156   -7.5454   16.8218 C   0  0  0  0  0  0  0  0  0  0  0  0
   10.3885   -4.4388   19.2773 C   0  0  0  0  0  0  0  0  0  0  0  0
    4.5160   -9.3822   15.0841 C   0  0  0  0  0  0  0  0  0  0  0  0
  1  3  4  0
  1 24  4  0
  2  6  4  0
  2 15  4  0
  3  5  4  0
  3  6  4  0
  4 21  4  0
  4 29  4  0
  5 15  4  0
  5 28  1  0
  6 16  4  0
  7 18  4  0
  7 26  4  0
  8 18  1  0
  8 19  4  0
  8 22  4  0
  9 12  4  0
  9 19  4  0
 10 12  4  0
 10 22  4  0
 11 20  4  0
 11 21  4  0
 12 23  1  0
 13 20  4  0
 13 29  4  0
 14 17  4  0
 14 28  4  0
 15 25  2  0
 16 27  4  0
 17 18  4  0
 20 27  1  0
 24 27  4  0
 26 28  4  0
M  END
$$$$

 Created by Python create_sdf_string function

 29 33  0  0  0  0  0  0  0  0999 V2000
    8.8270   -7.0288   18.4251 C   0  0  0  0  0  0  0  0  0  0  0  0
    9.1576   -4.6236   15.8860 O   0  0  0  0  0  0  0  0  0  0  0  0
    9.1509   -5.9108   17.7177 C   0  0  0  0  0  0  0  0  0  0  0  0
    3.6373   -9.5349   16.0582 N   0  0  0  0  0  0  0  0  0  0  0  0
    9.9275   -4.8001   18.0438 N   0  0  0  0  0  0  0  0  0  0  0  0
    8.5908   -5.7425   16.4412 C   0  0  0  0  0  0  0  0  0  0  0  0
   10.5993   -4.8981   21.6068 C   0  0  0  0  0  0  0  0  0  0  0  0
   10.4258   -3.0106   23.0998 C   0  0  0  0  0  0  0  0  0  0  0  0
   10.2148   -3.4364   25.4200 C   0  0  0  0  0  0  0  0  0  0  0  0
    9.7853   -1.1840   24.4927 C   0  0  0  0  0  0  0  0  0  0  0  0
    5.0276   -8.5227   17.5352 C   0  0  0  0  0  0  0  0  0  0  0  0
    9.8187   -2.0895   25.5800 C   0  0  0  0  0  0  0  0  0  0  0  0
    5.6473   -8.7216   15.3158 C   0  0  0  0  0  0  0  0  0  0  0  0
   10.7581   -3.1233   19.4720 N   0  0  0  0  0  0  0  0  0  0  0  0
    9.9571   -4.0573   16.8866 C   0  0  0  0  0  0  0  0  0  0  0  0
    7.6213   -6.5618   16.0087 C   0  0  0  0  0  0  0  0  0  0  0  0
   10.8583   -2.6527   20.7222 C   0  0  0  0  0  0  0  0  0  0  0  0
   10.6412   -3.5089   21.7936 C   0  0  0  0  0  0  0  0  0  0  0  0
   10.4972   -3.8968   24.1589 C   0  0  0  0  0  0  0  0  0  0  0  0
    5.9260   -8.2736   16.5517 C   0  0  0  0  0  0  0  0  0  0  0  0
    3.8816   -9.1166   17.2493 C   0  0  0  0  0  0  0  0  0  0  0  0
   10.1297   -1.6575   23.2324 C   0  0  0  0  0  0  0  0  0  0  0  0
    9.4684   -1.6929   26.7263 F   0  0  0  0  0  0  0  0  0  0  0  0
    7.7963   -7.7906   17.9837 C   0  0  0  0  0  0  0  0  0  0  0  0
   10.5884   -3.0725   16.7902 O   0  0  0  0  0  0  0  0  0  0  0  0
   10.4323   -5.3494   20.3516 C   0  0  0  0  0  0  0  0  0  0  0  0
    7.1156   -7.5454   16.8218 C   0  0  0  0  0  0  0  0  0  0  0  0
   10.3885   -4.4388   19.2773 C   0  0  0  0  0  0  0  0  0  0  0  0
    4.5160   -9.3822   15.0841 C   0  0  0  0  0  0  0  0  0  0  0  0
  1  3  4  0
  1 24  4  0
  2  6  4  0
  2 15  4  0
  3  5  4  0
  3  6  4  0
  4 21  4  0
  4 29  4  0
  5 15  4  0
  5 28  1  0
  6 16  4  0
  7 18  4  0
  7 26  4  0
  8 18  1  0
  8 19  4  0
  8 22  4  0
  9 12  4  0
  9 19  4  0
 10 12  4  0
 10 22  4  0
 11 20  4  0
 11 21  4  0
 12 23  1  0
 13 20  4  0
 13 29  4  0
 14 17  4  0
 14 28  4  0
 15 25  2  0
 16 27  4  0
 17 18  4  0
 20 27  1  0
 24 27  4  0
 26 28  4  0
M  END
$$$$

 Created by Python create_sdf_string function

 29 33  0  0  0  0  0  0  0  0999 V2000
    8.8270   -7.0288   18.4251 C   0  0  0  0  0  0  0  0  0  0  0  0
    9.1576   -4.6236   15.8860 O   0  0  0  0  0  0  0  0  0  0  0  0
    9.1509   -5.9108   17.7177 C   0  0  0  0  0  0  0  0  0  0  0  0
    3.6373   -9.5349   16.0582 N   0  0  0  0  0  0  0  0  0  0  0  0
    9.9275   -4.8001   18.0438 N   0  0  0  0  0  0  0  0  0  0  0  0
    8.5908   -5.7425   16.4412 C   0  0  0  0  0  0  0  0  0  0  0  0
   10.5993   -4.8981   21.6068 C   0  0  0  0  0  0  0  0  0  0  0  0
   10.4258   -3.0106   23.0998 C   0  0  0  0  0  0  0  0  0  0  0  0
   10.2148   -3.4364   25.4200 C   0  0  0  0  0  0  0  0  0  0  0  0
    9.7853   -1.1840   24.4927 C   0  0  0  0  0  0  0  0  0  0  0  0
    5.0276   -8.5227   17.5352 C   0  0  0  0  0  0  0  0  0  0  0  0
    9.8187   -2.0895   25.5800 C   0  0  0  0  0  0  0  0  0  0  0  0
    5.6473   -8.7216   15.3158 C   0  0  0  0  0  0  0  0  0  0  0  0
   10.7581   -3.1233   19.4720 N   0  0  0  0  0  0  0  0  0  0  0  0
    9.9571   -4.0573   16.8866 C   0  0  0  0  0  0  0  0  0  0  0  0
    7.6213   -6.5618   16.0087 C   0  0  0  0  0  0  0  0  0  0  0  0
   10.8583   -2.6527   20.7222 C   0  0  0  0  0  0  0  0  0  0  0  0
   10.6412   -3.5089   21.7936 C   0  0  0  0  0  0  0  0  0  0  0  0
   10.4972   -3.8968   24.1589 C   0  0  0  0  0  0  0  0  0  0  0  0
    5.9260   -8.2736   16.5517 C   0  0  0  0  0  0  0  0  0  0  0  0
    3.8816   -9.1166   17.2493 C   0  0  0  0  0  0  0  0  0  0  0  0
   10.1297   -1.6575   23.2324 C   0  0  0  0  0  0  0  0  0  0  0  0
    9.4684   -1.6929   26.7263 F   0  0  0  0  0  0  0  0  0  0  0  0
    7.7963   -7.7906   17.9837 C   0  0  0  0  0  0  0  0  0  0  0  0
   10.5884   -3.0725   16.7902 O   0  0  0  0  0  0  0  0  0  0  0  0
   10.4323   -5.3494   20.3516 C   0  0  0  0  0  0  0  0  0  0  0  0
    7.1156   -7.5454   16.8218 C   0  0  0  0  0  0  0  0  0  0  0  0
   10.3885   -4.4388   19.2773 C   0  0  0  0  0  0  0  0  0  0  0  0
    4.5160   -9.3822   15.0841 C   0  0  0  0  0  0  0  0  0  0  0  0
  1  3  4  0
  1 24  4  0
  2  6  4  0
  2 15  4  0
  3  5  4  0
  3  6  4  0
  4 21  4  0
  4 29  4  0
  5 15  4  0
  5 28  1  0
  6 16  4  0
  7 18  4  0
  7 26  4  0
  8 18  1  0
  8 19  4  0
  8 22  4  0
  9 12  4  0
  9 19  4  0
 10 12  4  0
 10 22  4  0
 11 20  4  0
 11 21  4  0
 12 23  1  0
 13 20  4  0
 13 29  4  0
 14 17  4  0
 14 28  4  0
 15 25  2  0
 16 27  4  0
 17 18  4  0
 20 27  1  0
 24 27  4  0
 26 28  4  0
M  END
$$$$

 Created by Python create_sdf_string function

 29 33  0  0  0  0  0  0  0  0999 V2000
    8.8270   -7.0288   18.4251 C   0  0  0  0  0  0  0  0  0  0  0  0
    9.1576   -4.6236   15.8860 O   0  0  0  0  0  0  0  0  0  0  0  0
    9.1509   -5.9108   17.7177 C   0  0  0  0  0  0  0  0  0  0  0  0
    3.6373   -9.5349   16.0582 N   0  0  0  0  0  0  0  0  0  0  0  0
    9.9275   -4.8001   18.0438 N   0  0  0  0  0  0  0  0  0  0  0  0
    8.5908   -5.7425   16.4412 C   0  0  0  0  0  0  0  0  0  0  0  0
   10.5993   -4.8981   21.6068 C   0  0  0  0  0  0  0  0  0  0  0  0
   10.4258   -3.0106   23.0998 C   0  0  0  0  0  0  0  0  0  0  0  0
   10.2148   -3.4364   25.4200 C   0  0  0  0  0  0  0  0  0  0  0  0
    9.7853   -1.1840   24.4927 C   0  0  0  0  0  0  0  0  0  0  0  0
    5.0276   -8.5227   17.5352 C   0  0  0  0  0  0  0  0  0  0  0  0
    9.8187   -2.0895   25.5800 C   0  0  0  0  0  0  0  0  0  0  0  0
    5.6473   -8.7216   15.3158 C   0  0  0  0  0  0  0  0  0  0  0  0
   10.7581   -3.1233   19.4720 N   0  0  0  0  0  0  0  0  0  0  0  0
    9.9571   -4.0573   16.8866 C   0  0  0  0  0  0  0  0  0  0  0  0
    7.6213   -6.5618   16.0087 C   0  0  0  0  0  0  0  0  0  0  0  0
   10.8583   -2.6527   20.7222 C   0  0  0  0  0  0  0  0  0  0  0  0
   10.6412   -3.5089   21.7936 C   0  0  0  0  0  0  0  0  0  0  0  0
   10.4972   -3.8968   24.1589 C   0  0  0  0  0  0  0  0  0  0  0  0
    5.9260   -8.2736   16.5517 C   0  0  0  0  0  0  0  0  0  0  0  0
    3.8816   -9.1166   17.2493 C   0  0  0  0  0  0  0  0  0  0  0  0
   10.1297   -1.6575   23.2324 C   0  0  0  0  0  0  0  0  0  0  0  0
    9.4684   -1.6929   26.7263 F   0  0  0  0  0  0  0  0  0  0  0  0
    7.7963   -7.7906   17.9837 C   0  0  0  0  0  0  0  0  0  0  0  0
   10.5884   -3.0725   16.7902 O   0  0  0  0  0  0  0  0  0  0  0  0
   10.4323   -5.3494   20.3516 C   0  0  0  0  0  0  0  0  0  0  0  0
    7.1156   -7.5454   16.8218 C   0  0  0  0  0  0  0  0  0  0  0  0
   10.3885   -4.4388   19.2773 C   0  0  0  0  0  0  0  0  0  0  0  0
    4.5160   -9.3822   15.0841 C   0  0  0  0  0  0  0  0  0  0  0  0
  1  3  4  0
  1 24  4  0
  2  6  4  0
  2 15  4  0
  3  5  4  0
  3  6  4  0
  4 21  4  0
  4 29  4  0
  5 15  4  0
  5 28  1  0
  6 16  4  0
  7 18  4  0
  7 26  4  0
  8 18  1  0
  8 19  4  0
  8 22  4  0
  9 12  4  0
  9 19  4  0
 10 12  4  0
 10 22  4  0
 11 20  4  0
 11 21  4  0
 12 23  1  0
 13 20  4  0
 13 29  4  0
 14 17  4  0
 14 28  4  0
 15 25  2  0
 16 27  4  0
 17 18  4  0
 20 27  1  0
 24 27  4  0
 26 28  4  0
M  END
$$$$

 Created by Python create_sdf_string function

 29 33  0  0  0  0  0  0  0  0999 V2000
    8.8270   -7.0288   18.4251 C   0  0  0  0  0  0  0  0  0  0  0  0
    9.1576   -4.6236   15.8860 O   0  0  0  0  0  0  0  0  0  0  0  0
    9.1509   -5.9108   17.7177 C   0  0  0  0  0  0  0  0  0  0  0  0
    3.6373   -9.5349   16.0582 N   0  0  0  0  0  0  0  0  0  0  0  0
    9.9275   -4.8001   18.0438 N   0  0  0  0  0  0  0  0  0  0  0  0
    8.5908   -5.7425   16.4412 C   0  0  0  0  0  0  0  0  0  0  0  0
   10.5993   -4.8981   21.6068 C   0  0  0  0  0  0  0  0  0  0  0  0
   10.4258   -3.0106   23.0998 C   0  0  0  0  0  0  0  0  0  0  0  0
   10.2148   -3.4364   25.4200 C   0  0  0  0  0  0  0  0  0  0  0  0
    9.7853   -1.1840   24.4927 C   0  0  0  0  0  0  0  0  0  0  0  0
    5.0276   -8.5227   17.5352 C   0  0  0  0  0  0  0  0  0  0  0  0
    9.8187   -2.0895   25.5800 C   0  0  0  0  0  0  0  0  0  0  0  0
    5.6473   -8.7216   15.3158 C   0  0  0  0  0  0  0  0  0  0  0  0
   10.7581   -3.1233   19.4720 N   0  0  0  0  0  0  0  0  0  0  0  0
    9.9571   -4.0573   16.8866 C   0  0  0  0  0  0  0  0  0  0  0  0
    7.6213   -6.5618   16.0087 C   0  0  0  0  0  0  0  0  0  0  0  0
   10.8583   -2.6527   20.7222 C   0  0  0  0  0  0  0  0  0  0  0  0
   10.6412   -3.5089   21.7936 C   0  0  0  0  0  0  0  0  0  0  0  0
   10.4972   -3.8968   24.1589 C   0  0  0  0  0  0  0  0  0  0  0  0
    5.9260   -8.2736   16.5517 C   0  0  0  0  0  0  0  0  0  0  0  0
    3.8816   -9.1166   17.2493 C   0  0  0  0  0  0  0  0  0  0  0  0
   10.1297   -1.6575   23.2324 C   0  0  0  0  0  0  0  0  0  0  0  0
    9.4684   -1.6929   26.7263 F   0  0  0  0  0  0  0  0  0  0  0  0
    7.7963   -7.7906   17.9837 C   0  0  0  0  0  0  0  0  0  0  0  0
   10.5884   -3.0725   16.7902 O   0  0  0  0  0  0  0  0  0  0  0  0
   10.4323   -5.3494   20.3516 C   0  0  0  0  0  0  0  0  0  0  0  0
    7.1156   -7.5454   16.8218 C   0  0  0  0  0  0  0  0  0  0  0  0
   10.3885   -4.4388   19.2773 C   0  0  0  0  0  0  0  0  0  0  0  0
    4.5160   -9.3822   15.0841 C   0  0  0  0  0  0  0  0  0  0  0  0
  1  3  4  0
  1 24  4  0
  2  6  4  0
  2 15  4  0
  3  5  4  0
  3  6  4  0
  4 21  4  0
  4 29  4  0
  5 15  4  0
  5 28  1  0
  6 16  4  0
  7 18  4  0
  7 26  4  0
  8 18  1  0
  8 19  4  0
  8 22  4  0
  9 12  4  0
  9 19  4  0
 10 12  4  0
 10 22  4  0
 11 20  4  0
 11 21  4  0
 12 23  1  0
 13 20  4  0
 13 29  4  0
 14 17  4  0
 14 28  4  0
 15 25  2  0
 16 27  4  0
 17 18  4  0
 20 27  1  0
 24 27  4  0
 26 28  4  0
M  END
$$$$

 Created by Python create_sdf_string function

 29 33  0  0  0  0  0  0  0  0999 V2000
    8.8270   -7.0288   18.4251 C   0  0  0  0  0  0  0  0  0  0  0  0
    9.1576   -4.6236   15.8860 O   0  0  0  0  0  0  0  0  0  0  0  0
    9.1509   -5.9108   17.7177 C   0  0  0  0  0  0  0  0  0  0  0  0
    3.6373   -9.5349   16.0582 N   0  0  0  0  0  0  0  0  0  0  0  0
    9.9275   -4.8001   18.0438 N   0  0  0  0  0  0  0  0  0  0  0  0
    8.5908   -5.7425   16.4412 C   0  0  0  0  0  0  0  0  0  0  0  0
   10.5993   -4.8981   21.6068 C   0  0  0  0  0  0  0  0  0  0  0  0
   10.4258   -3.0106   23.0998 C   0  0  0  0  0  0  0  0  0  0  0  0
   10.2148   -3.4364   25.4200 C   0  0  0  0  0  0  0  0  0  0  0  0
    9.7853   -1.1840   24.4927 C   0  0  0  0  0  0  0  0  0  0  0  0
    5.0276   -8.5227   17.5352 C   0  0  0  0  0  0  0  0  0  0  0  0
    9.8187   -2.0895   25.5800 C   0  0  0  0  0  0  0  0  0  0  0  0
    5.6473   -8.7216   15.3158 C   0  0  0  0  0  0  0  0  0  0  0  0
   10.7581   -3.1233   19.4720 N   0  0  0  0  0  0  0  0  0  0  0  0
    9.9571   -4.0573   16.8866 C   0  0  0  0  0  0  0  0  0  0  0  0
    7.6213   -6.5618   16.0087 C   0  0  0  0  0  0  0  0  0  0  0  0
   10.8583   -2.6527   20.7222 C   0  0  0  0  0  0  0  0  0  0  0  0
   10.6412   -3.5089   21.7936 C   0  0  0  0  0  0  0  0  0  0  0  0
   10.4972   -3.8968   24.1589 C   0  0  0  0  0  0  0  0  0  0  0  0
    5.9260   -8.2736   16.5517 C   0  0  0  0  0  0  0  0  0  0  0  0
    3.8816   -9.1166   17.2493 C   0  0  0  0  0  0  0  0  0  0  0  0
   10.1297   -1.6575   23.2324 C   0  0  0  0  0  0  0  0  0  0  0  0
    9.4684   -1.6929   26.7263 F   0  0  0  0  0  0  0  0  0  0  0  0
    7.7963   -7.7906   17.9837 C   0  0  0  0  0  0  0  0  0  0  0  0
   10.5884   -3.0725   16.7902 O   0  0  0  0  0  0  0  0  0  0  0  0
   10.4323   -5.3494   20.3516 C   0  0  0  0  0  0  0  0  0  0  0  0
    7.1156   -7.5454   16.8218 C   0  0  0  0  0  0  0  0  0  0  0  0
   10.3885   -4.4388   19.2773 C   0  0  0  0  0  0  0  0  0  0  0  0
    4.5160   -9.3822   15.0841 C   0  0  0  0  0  0  0  0  0  0  0  0
  1  3  4  0
  1 24  4  0
  2  6  4  0
  2 15  4  0
  3  5  4  0
  3  6  4  0
  4 21  4  0
  4 29  4  0
  5 15  4  0
  5 28  1  0
  6 16  4  0
  7 18  4  0
  7 26  4  0
  8 18  1  0
  8 19  4  0
  8 22  4  0
  9 12  4  0
  9 19  4  0
 10 12  4  0
 10 22  4  0
 11 20  4  0
 11 21  4  0
 12 23  1  0
 13 20  4  0
 13 29  4  0
 14 17  4  0
 14 28  4  0
 15 25  2  0
 16 27  4  0
 17 18  4  0
 20 27  1  0
 24 27  4  0
 26 28  4  0
M  END
$$$$

 Created by Python create_sdf_string function

 29 33  0  0  0  0  0  0  0  0999 V2000
    8.8270   -7.0288   18.4251 C   0  0  0  0  0  0  0  0  0  0  0  0
    9.1576   -4.6236   15.8860 O   0  0  0  0  0  0  0  0  0  0  0  0
    9.1509   -5.9108   17.7177 C   0  0  0  0  0  0  0  0  0  0  0  0
    3.6373   -9.5349   16.0582 N   0  0  0  0  0  0  0  0  0  0  0  0
    9.9275   -4.8001   18.0438 N   0  0  0  0  0  0  0  0  0  0  0  0
    8.5908   -5.7425   16.4412 C   0  0  0  0  0  0  0  0  0  0  0  0
   10.5993   -4.8981   21.6068 C   0  0  0  0  0  0  0  0  0  0  0  0
   10.4258   -3.0106   23.0998 C   0  0  0  0  0  0  0  0  0  0  0  0
   10.2148   -3.4364   25.4200 C   0  0  0  0  0  0  0  0  0  0  0  0
    9.7853   -1.1840   24.4927 C   0  0  0  0  0  0  0  0  0  0  0  0
    5.0276   -8.5227   17.5352 C   0  0  0  0  0  0  0  0  0  0  0  0
    9.8187   -2.0895   25.5800 C   0  0  0  0  0  0  0  0  0  0  0  0
    5.6473   -8.7216   15.3158 C   0  0  0  0  0  0  0  0  0  0  0  0
   10.7581   -3.1233   19.4720 N   0  0  0  0  0  0  0  0  0  0  0  0
    9.9571   -4.0573   16.8866 C   0  0  0  0  0  0  0  0  0  0  0  0
    7.6213   -6.5618   16.0087 C   0  0  0  0  0  0  0  0  0  0  0  0
   10.8583   -2.6527   20.7222 C   0  0  0  0  0  0  0  0  0  0  0  0
   10.6412   -3.5089   21.7936 C   0  0  0  0  0  0  0  0  0  0  0  0
   10.4972   -3.8968   24.1589 C   0  0  0  0  0  0  0  0  0  0  0  0
    5.9260   -8.2736   16.5517 C   0  0  0  0  0  0  0  0  0  0  0  0
    3.8816   -9.1166   17.2493 C   0  0  0  0  0  0  0  0  0  0  0  0
   10.1297   -1.6575   23.2324 C   0  0  0  0  0  0  0  0  0  0  0  0
    9.4684   -1.6929   26.7263 F   0  0  0  0  0  0  0  0  0  0  0  0
    7.7963   -7.7906   17.9837 C   0  0  0  0  0  0  0  0  0  0  0  0
   10.5884   -3.0725   16.7902 O   0  0  0  0  0  0  0  0  0  0  0  0
   10.4323   -5.3494   20.3516 C   0  0  0  0  0  0  0  0  0  0  0  0
    7.1156   -7.5454   16.8218 C   0  0  0  0  0  0  0  0  0  0  0  0
   10.3885   -4.4388   19.2773 C   0  0  0  0  0  0  0  0  0  0  0  0
    4.5160   -9.3822   15.0841 C   0  0  0  0  0  0  0  0  0  0  0  0
  1  3  4  0
  1 24  4  0
  2  6  4  0
  2 15  4  0
  3  5  4  0
  3  6  4  0
  4 21  4  0
  4 29  4  0
  5 15  4  0
  5 28  1  0
  6 16  4  0
  7 18  4  0
  7 26  4  0
  8 18  1  0
  8 19  4  0
  8 22  4  0
  9 12  4  0
  9 19  4  0
 10 12  4  0
 10 22  4  0
 11 20  4  0
 11 21  4  0
 12 23  1  0
 13 20  4  0
 13 29  4  0
 14 17  4  0
 14 28  4  0
 15 25  2  0
 16 27  4  0
 17 18  4  0
 20 27  1  0
 24 27  4  0
 26 28  4  0
M  END
$$$$

 Created by Python create_sdf_string function

 29 33  0  0  0  0  0  0  0  0999 V2000
    8.8270   -7.0288   18.4251 C   0  0  0  0  0  0  0  0  0  0  0  0
    9.1576   -4.6236   15.8860 O   0  0  0  0  0  0  0  0  0  0  0  0
    9.1509   -5.9108   17.7177 C   0  0  0  0  0  0  0  0  0  0  0  0
    3.6373   -9.5349   16.0582 N   0  0  0  0  0  0  0  0  0  0  0  0
    9.9275   -4.8001   18.0438 N   0  0  0  0  0  0  0  0  0  0  0  0
    8.5908   -5.7425   16.4412 C   0  0  0  0  0  0  0  0  0  0  0  0
   10.5993   -4.8981   21.6068 C   0  0  0  0  0  0  0  0  0  0  0  0
   10.4258   -3.0106   23.0998 C   0  0  0  0  0  0  0  0  0  0  0  0
   10.2148   -3.4364   25.4200 C   0  0  0  0  0  0  0  0  0  0  0  0
    9.7853   -1.1840   24.4927 C   0  0  0  0  0  0  0  0  0  0  0  0
    5.0276   -8.5227   17.5352 C   0  0  0  0  0  0  0  0  0  0  0  0
    9.8187   -2.0895   25.5800 C   0  0  0  0  0  0  0  0  0  0  0  0
    5.6473   -8.7216   15.3158 C   0  0  0  0  0  0  0  0  0  0  0  0
   10.7581   -3.1233   19.4720 N   0  0  0  0  0  0  0  0  0  0  0  0
    9.9571   -4.0573   16.8866 C   0  0  0  0  0  0  0  0  0  0  0  0
    7.6213   -6.5618   16.0087 C   0  0  0  0  0  0  0  0  0  0  0  0
   10.8583   -2.6527   20.7222 C   0  0  0  0  0  0  0  0  0  0  0  0
   10.6412   -3.5089   21.7936 C   0  0  0  0  0  0  0  0  0  0  0  0
   10.4972   -3.8968   24.1589 C   0  0  0  0  0  0  0  0  0  0  0  0
    5.9260   -8.2736   16.5517 C   0  0  0  0  0  0  0  0  0  0  0  0
    3.8816   -9.1166   17.2493 C   0  0  0  0  0  0  0  0  0  0  0  0
   10.1297   -1.6575   23.2324 C   0  0  0  0  0  0  0  0  0  0  0  0
    9.4684   -1.6929   26.7263 F   0  0  0  0  0  0  0  0  0  0  0  0
    7.7963   -7.7906   17.9837 C   0  0  0  0  0  0  0  0  0  0  0  0
   10.5884   -3.0725   16.7902 O   0  0  0  0  0  0  0  0  0  0  0  0
   10.4323   -5.3494   20.3516 C   0  0  0  0  0  0  0  0  0  0  0  0
    7.1156   -7.5454   16.8218 C   0  0  0  0  0  0  0  0  0  0  0  0
   10.3885   -4.4388   19.2773 C   0  0  0  0  0  0  0  0  0  0  0  0
    4.5160   -9.3822   15.0841 C   0  0  0  0  0  0  0  0  0  0  0  0
  1  3  4  0
  1 24  4  0
  2  6  4  0
  2 15  4  0
  3  5  4  0
  3  6  4  0
  4 21  4  0
  4 29  4  0
  5 15  4  0
  5 28  1  0
  6 16  4  0
  7 18  4  0
  7 26  4  0
  8 18  1  0
  8 19  4  0
  8 22  4  0
  9 12  4  0
  9 19  4  0
 10 12  4  0
 10 22  4  0
 11 20  4  0
 11 21  4  0
 12 23  1  0
 13 20  4  0
 13 29  4  0
 14 17  4  0
 14 28  4  0
 15 25  2  0
 16 27  4  0
 17 18  4  0
 20 27  1  0
 24 27  4  0
 26 28  4  0
M  END
$$$$

 Created by Python create_sdf_string function

 29 33  0  0  0  0  0  0  0  0999 V2000
    8.8270   -7.0288   18.4251 C   0  0  0  0  0  0  0  0  0  0  0  0
    9.1576   -4.6236   15.8860 O   0  0  0  0  0  0  0  0  0  0  0  0
    9.1509   -5.9108   17.7177 C   0  0  0  0  0  0  0  0  0  0  0  0
    3.6373   -9.5349   16.0582 N   0  0  0  0  0  0  0  0  0  0  0  0
    9.9275   -4.8001   18.0438 N   0  0  0  0  0  0  0  0  0  0  0  0
    8.5908   -5.7425   16.4412 C   0  0  0  0  0  0  0  0  0  0  0  0
   10.5993   -4.8981   21.6068 C   0  0  0  0  0  0  0  0  0  0  0  0
   10.4258   -3.0106   23.0998 C   0  0  0  0  0  0  0  0  0  0  0  0
   10.2148   -3.4364   25.4200 C   0  0  0  0  0  0  0  0  0  0  0  0
    9.7853   -1.1840   24.4927 C   0  0  0  0  0  0  0  0  0  0  0  0
    5.0276   -8.5227   17.5352 C   0  0  0  0  0  0  0  0  0  0  0  0
    9.8187   -2.0895   25.5800 C   0  0  0  0  0  0  0  0  0  0  0  0
    5.6473   -8.7216   15.3158 C   0  0  0  0  0  0  0  0  0  0  0  0
   10.7581   -3.1233   19.4720 N   0  0  0  0  0  0  0  0  0  0  0  0
    9.9571   -4.0573   16.8866 C   0  0  0  0  0  0  0  0  0  0  0  0
    7.6213   -6.5618   16.0087 C   0  0  0  0  0  0  0  0  0  0  0  0
   10.8583   -2.6527   20.7222 C   0  0  0  0  0  0  0  0  0  0  0  0
   10.6412   -3.5089   21.7936 C   0  0  0  0  0  0  0  0  0  0  0  0
   10.4972   -3.8968   24.1589 C   0  0  0  0  0  0  0  0  0  0  0  0
    5.9260   -8.2736   16.5517 C   0  0  0  0  0  0  0  0  0  0  0  0
    3.8816   -9.1166   17.2493 C   0  0  0  0  0  0  0  0  0  0  0  0
   10.1297   -1.6575   23.2324 C   0  0  0  0  0  0  0  0  0  0  0  0
    9.4684   -1.6929   26.7263 F   0  0  0  0  0  0  0  0  0  0  0  0
    7.7963   -7.7906   17.9837 C   0  0  0  0  0  0  0  0  0  0  0  0
   10.5884   -3.0725   16.7902 O   0  0  0  0  0  0  0  0  0  0  0  0
   10.4323   -5.3494   20.3516 C   0  0  0  0  0  0  0  0  0  0  0  0
    7.1156   -7.5454   16.8218 C   0  0  0  0  0  0  0  0  0  0  0  0
   10.3885   -4.4388   19.2773 C   0  0  0  0  0  0  0  0  0  0  0  0
    4.5160   -9.3822   15.0841 C   0  0  0  0  0  0  0  0  0  0  0  0
  1  3  4  0
  1 24  4  0
  2  6  4  0
  2 15  4  0
  3  5  4  0
  3  6  4  0
  4 21  4  0
  4 29  4  0
  5 15  4  0
  5 28  1  0
  6 16  4  0
  7 18  4  0
  7 26  4  0
  8 18  1  0
  8 19  4  0
  8 22  4  0
  9 12  4  0
  9 19  4  0
 10 12  4  0
 10 22  4  0
 11 20  4  0
 11 21  4  0
 12 23  1  0
 13 20  4  0
 13 29  4  0
 14 17  4  0
 14 28  4  0
 15 25  2  0
 16 27  4  0
 17 18  4  0
 20 27  1  0
 24 27  4  0
 26 28  4  0
M  END
$$$$

 Created by Python create_sdf_string function

 29 33  0  0  0  0  0  0  0  0999 V2000
    8.8270   -7.0288   18.4251 C   0  0  0  0  0  0  0  0  0  0  0  0
    9.1576   -4.6236   15.8860 O   0  0  0  0  0  0  0  0  0  0  0  0
    9.1509   -5.9108   17.7177 C   0  0  0  0  0  0  0  0  0  0  0  0
    3.6373   -9.5349   16.0582 N   0  0  0  0  0  0  0  0  0  0  0  0
    9.9275   -4.8001   18.0438 N   0  0  0  0  0  0  0  0  0  0  0  0
    8.5908   -5.7425   16.4412 C   0  0  0  0  0  0  0  0  0  0  0  0
   10.5993   -4.8981   21.6068 C   0  0  0  0  0  0  0  0  0  0  0  0
   10.4258   -3.0106   23.0998 C   0  0  0  0  0  0  0  0  0  0  0  0
   10.2148   -3.4364   25.4200 C   0  0  0  0  0  0  0  0  0  0  0  0
    9.7853   -1.1840   24.4927 C   0  0  0  0  0  0  0  0  0  0  0  0
    5.0276   -8.5227   17.5352 C   0  0  0  0  0  0  0  0  0  0  0  0
    9.8187   -2.0895   25.5800 C   0  0  0  0  0  0  0  0  0  0  0  0
    5.6473   -8.7216   15.3158 C   0  0  0  0  0  0  0  0  0  0  0  0
   10.7581   -3.1233   19.4720 N   0  0  0  0  0  0  0  0  0  0  0  0
    9.9571   -4.0573   16.8866 C   0  0  0  0  0  0  0  0  0  0  0  0
    7.6213   -6.5618   16.0087 C   0  0  0  0  0  0  0  0  0  0  0  0
   10.8583   -2.6527   20.7222 C   0  0  0  0  0  0  0  0  0  0  0  0
   10.6412   -3.5089   21.7936 C   0  0  0  0  0  0  0  0  0  0  0  0
   10.4972   -3.8968   24.1589 C   0  0  0  0  0  0  0  0  0  0  0  0
    5.9260   -8.2736   16.5517 C   0  0  0  0  0  0  0  0  0  0  0  0
    3.8816   -9.1166   17.2493 C   0  0  0  0  0  0  0  0  0  0  0  0
   10.1297   -1.6575   23.2324 C   0  0  0  0  0  0  0  0  0  0  0  0
    9.4684   -1.6929   26.7263 F   0  0  0  0  0  0  0  0  0  0  0  0
    7.7963   -7.7906   17.9837 C   0  0  0  0  0  0  0  0  0  0  0  0
   10.5884   -3.0725   16.7902 O   0  0  0  0  0  0  0  0  0  0  0  0
   10.4323   -5.3494   20.3516 C   0  0  0  0  0  0  0  0  0  0  0  0
    7.1156   -7.5454   16.8218 C   0  0  0  0  0  0  0  0  0  0  0  0
   10.3885   -4.4388   19.2773 C   0  0  0  0  0  0  0  0  0  0  0  0
    4.5160   -9.3822   15.0841 C   0  0  0  0  0  0  0  0  0  0  0  0
  1  3  4  0
  1 24  4  0
  2  6  4  0
  2 15  4  0
  3  5  4  0
  3  6  4  0
  4 21  4  0
  4 29  4  0
  5 15  4  0
  5 28  1  0
  6 16  4  0
  7 18  4  0
  7 26  4  0
  8 18  1  0
  8 19  4  0
  8 22  4  0
  9 12  4  0
  9 19  4  0
 10 12  4  0
 10 22  4  0
 11 20  4  0
 11 21  4  0
 12 23  1  0
 13 20  4  0
 13 29  4  0
 14 17  4  0
 14 28  4  0
 15 25  2  0
 16 27  4  0
 17 18  4  0
 20 27  1  0
 24 27  4  0
 26 28  4  0
M  END
$$$$

 Created by Python create_sdf_string function

 29 33  0  0  0  0  0  0  0  0999 V2000
    8.8270   -7.0288   18.4251 C   0  0  0  0  0  0  0  0  0  0  0  0
    9.1576   -4.6236   15.8860 O   0  0  0  0  0  0  0  0  0  0  0  0
    9.1509   -5.9108   17.7177 C   0  0  0  0  0  0  0  0  0  0  0  0
    3.6373   -9.5349   16.0582 N   0  0  0  0  0  0  0  0  0  0  0  0
    9.9275   -4.8001   18.0438 N   0  0  0  0  0  0  0  0  0  0  0  0
    8.5908   -5.7425   16.4412 C   0  0  0  0  0  0  0  0  0  0  0  0
   10.5993   -4.8981   21.6068 C   0  0  0  0  0  0  0  0  0  0  0  0
   10.4258   -3.0106   23.0998 C   0  0  0  0  0  0  0  0  0  0  0  0
   10.2148   -3.4364   25.4200 C   0  0  0  0  0  0  0  0  0  0  0  0
    9.7853   -1.1840   24.4927 C   0  0  0  0  0  0  0  0  0  0  0  0
    5.0276   -8.5227   17.5352 C   0  0  0  0  0  0  0  0  0  0  0  0
    9.8187   -2.0895   25.5800 C   0  0  0  0  0  0  0  0  0  0  0  0
    5.6473   -8.7216   15.3158 C   0  0  0  0  0  0  0  0  0  0  0  0
   10.7581   -3.1233   19.4720 N   0  0  0  0  0  0  0  0  0  0  0  0
    9.9571   -4.0573   16.8866 C   0  0  0  0  0  0  0  0  0  0  0  0
    7.6213   -6.5618   16.0087 C   0  0  0  0  0  0  0  0  0  0  0  0
   10.8583   -2.6527   20.7222 C   0  0  0  0  0  0  0  0  0  0  0  0
   10.6412   -3.5089   21.7936 C   0  0  0  0  0  0  0  0  0  0  0  0
   10.4972   -3.8968   24.1589 C   0  0  0  0  0  0  0  0  0  0  0  0
    5.9260   -8.2736   16.5517 C   0  0  0  0  0  0  0  0  0  0  0  0
    3.8816   -9.1166   17.2493 C   0  0  0  0  0  0  0  0  0  0  0  0
   10.1297   -1.6575   23.2324 C   0  0  0  0  0  0  0  0  0  0  0  0
    9.4684   -1.6929   26.7263 F   0  0  0  0  0  0  0  0  0  0  0  0
    7.7963   -7.7906   17.9837 C   0  0  0  0  0  0  0  0  0  0  0  0
   10.5884   -3.0725   16.7902 O   0  0  0  0  0  0  0  0  0  0  0  0
   10.4323   -5.3494   20.3516 C   0  0  0  0  0  0  0  0  0  0  0  0
    7.1156   -7.5454   16.8218 C   0  0  0  0  0  0  0  0  0  0  0  0
   10.3885   -4.4388   19.2773 C   0  0  0  0  0  0  0  0  0  0  0  0
    4.5160   -9.3822   15.0841 C   0  0  0  0  0  0  0  0  0  0  0  0
  1  3  4  0
  1 24  4  0
  2  6  4  0
  2 15  4  0
  3  5  4  0
  3  6  4  0
  4 21  4  0
  4 29  4  0
  5 15  4  0
  5 28  1  0
  6 16  4  0
  7 18  4  0
  7 26  4  0
  8 18  1  0
  8 19  4  0
  8 22  4  0
  9 12  4  0
  9 19  4  0
 10 12  4  0
 10 22  4  0
 11 20  4  0
 11 21  4  0
 12 23  1  0
 13 20  4  0
 13 29  4  0
 14 17  4  0
 14 28  4  0
 15 25  2  0
 16 27  4  0
 17 18  4  0
 20 27  1  0
 24 27  4  0
 26 28  4  0
M  END
$$$$

 Created by Python create_sdf_string function

 29 33  0  0  0  0  0  0  0  0999 V2000
    8.8270   -7.0288   18.4251 C   0  0  0  0  0  0  0  0  0  0  0  0
    9.1576   -4.6236   15.8860 O   0  0  0  0  0  0  0  0  0  0  0  0
    9.1509   -5.9108   17.7177 C   0  0  0  0  0  0  0  0  0  0  0  0
    3.6373   -9.5349   16.0582 N   0  0  0  0  0  0  0  0  0  0  0  0
    9.9275   -4.8001   18.0438 N   0  0  0  0  0  0  0  0  0  0  0  0
    8.5908   -5.7425   16.4412 C   0  0  0  0  0  0  0  0  0  0  0  0
   10.5993   -4.8981   21.6068 C   0  0  0  0  0  0  0  0  0  0  0  0
   10.4258   -3.0106   23.0998 C   0  0  0  0  0  0  0  0  0  0  0  0
   10.2148   -3.4364   25.4200 C   0  0  0  0  0  0  0  0  0  0  0  0
    9.7853   -1.1840   24.4927 C   0  0  0  0  0  0  0  0  0  0  0  0
    5.0276   -8.5227   17.5352 C   0  0  0  0  0  0  0  0  0  0  0  0
    9.8187   -2.0895   25.5800 C   0  0  0  0  0  0  0  0  0  0  0  0
    5.6473   -8.7216   15.3158 C   0  0  0  0  0  0  0  0  0  0  0  0
   10.7581   -3.1233   19.4720 N   0  0  0  0  0  0  0  0  0  0  0  0
    9.9571   -4.0573   16.8866 C   0  0  0  0  0  0  0  0  0  0  0  0
    7.6213   -6.5618   16.0087 C   0  0  0  0  0  0  0  0  0  0  0  0
   10.8583   -2.6527   20.7222 C   0  0  0  0  0  0  0  0  0  0  0  0
   10.6412   -3.5089   21.7936 C   0  0  0  0  0  0  0  0  0  0  0  0
   10.4972   -3.8968   24.1589 C   0  0  0  0  0  0  0  0  0  0  0  0
    5.9260   -8.2736   16.5517 C   0  0  0  0  0  0  0  0  0  0  0  0
    3.8816   -9.1166   17.2493 C   0  0  0  0  0  0  0  0  0  0  0  0
   10.1297   -1.6575   23.2324 C   0  0  0  0  0  0  0  0  0  0  0  0
    9.4684   -1.6929   26.7263 F   0  0  0  0  0  0  0  0  0  0  0  0
    7.7963   -7.7906   17.9837 C   0  0  0  0  0  0  0  0  0  0  0  0
   10.5884   -3.0725   16.7902 O   0  0  0  0  0  0  0  0  0  0  0  0
   10.4323   -5.3494   20.3516 C   0  0  0  0  0  0  0  0  0  0  0  0
    7.1156   -7.5454   16.8218 C   0  0  0  0  0  0  0  0  0  0  0  0
   10.3885   -4.4388   19.2773 C   0  0  0  0  0  0  0  0  0  0  0  0
    4.5160   -9.3822   15.0841 C   0  0  0  0  0  0  0  0  0  0  0  0
  1  3  4  0
  1 24  4  0
  2  6  4  0
  2 15  4  0
  3  5  4  0
  3  6  4  0
  4 21  4  0
  4 29  4  0
  5 15  4  0
  5 28  1  0
  6 16  4  0
  7 18  4  0
  7 26  4  0
  8 18  1  0
  8 19  4  0
  8 22  4  0
  9 12  4  0
  9 19  4  0
 10 12  4  0
 10 22  4  0
 11 20  4  0
 11 21  4  0
 12 23  1  0
 13 20  4  0
 13 29  4  0
 14 17  4  0
 14 28  4  0
 15 25  2  0
 16 27  4  0
 17 18  4  0
 20 27  1  0
 24 27  4  0
 26 28  4  0
M  END
$$$$

 Created by Python create_sdf_string function

 29 33  0  0  0  0  0  0  0  0999 V2000
    8.8270   -7.0288   18.4251 C   0  0  0  0  0  0  0  0  0  0  0  0
    9.1576   -4.6236   15.8860 O   0  0  0  0  0  0  0  0  0  0  0  0
    9.1509   -5.9108   17.7177 C   0  0  0  0  0  0  0  0  0  0  0  0
    3.6373   -9.5349   16.0582 N   0  0  0  0  0  0  0  0  0  0  0  0
    9.9275   -4.8001   18.0438 N   0  0  0  0  0  0  0  0  0  0  0  0
    8.5908   -5.7425   16.4412 C   0  0  0  0  0  0  0  0  0  0  0  0
   10.5993   -4.8981   21.6068 C   0  0  0  0  0  0  0  0  0  0  0  0
   10.4258   -3.0106   23.0998 C   0  0  0  0  0  0  0  0  0  0  0  0
   10.2148   -3.4364   25.4200 C   0  0  0  0  0  0  0  0  0  0  0  0
    9.7853   -1.1840   24.4927 C   0  0  0  0  0  0  0  0  0  0  0  0
    5.0276   -8.5227   17.5352 C   0  0  0  0  0  0  0  0  0  0  0  0
    9.8187   -2.0895   25.5800 C   0  0  0  0  0  0  0  0  0  0  0  0
    5.6473   -8.7216   15.3158 C   0  0  0  0  0  0  0  0  0  0  0  0
   10.7581   -3.1233   19.4720 N   0  0  0  0  0  0  0  0  0  0  0  0
    9.9571   -4.0573   16.8866 C   0  0  0  0  0  0  0  0  0  0  0  0
    7.6213   -6.5618   16.0087 C   0  0  0  0  0  0  0  0  0  0  0  0
   10.8583   -2.6527   20.7222 C   0  0  0  0  0  0  0  0  0  0  0  0
   10.6412   -3.5089   21.7936 C   0  0  0  0  0  0  0  0  0  0  0  0
   10.4972   -3.8968   24.1589 C   0  0  0  0  0  0  0  0  0  0  0  0
    5.9260   -8.2736   16.5517 C   0  0  0  0  0  0  0  0  0  0  0  0
    3.8816   -9.1166   17.2493 C   0  0  0  0  0  0  0  0  0  0  0  0
   10.1297   -1.6575   23.2324 C   0  0  0  0  0  0  0  0  0  0  0  0
    9.4684   -1.6929   26.7263 F   0  0  0  0  0  0  0  0  0  0  0  0
    7.7963   -7.7906   17.9837 C   0  0  0  0  0  0  0  0  0  0  0  0
   10.5884   -3.0725   16.7902 O   0  0  0  0  0  0  0  0  0  0  0  0
   10.4323   -5.3494   20.3516 C   0  0  0  0  0  0  0  0  0  0  0  0
    7.1156   -7.5454   16.8218 C   0  0  0  0  0  0  0  0  0  0  0  0
   10.3885   -4.4388   19.2773 C   0  0  0  0  0  0  0  0  0  0  0  0
    4.5160   -9.3822   15.0841 C   0  0  0  0  0  0  0  0  0  0  0  0
  1  3  4  0
  1 24  4  0
  2  6  4  0
  2 15  4  0
  3  5  4  0
  3  6  4  0
  4 21  4  0
  4 29  4  0
  5 15  4  0
  5 28  1  0
  6 16  4  0
  7 18  4  0
  7 26  4  0
  8 18  1  0
  8 19  4  0
  8 22  4  0
  9 12  4  0
  9 19  4  0
 10 12  4  0
 10 22  4  0
 11 20  4  0
 11 21  4  0
 12 23  1  0
 13 20  4  0
 13 29  4  0
 14 17  4  0
 14 28  4  0
 15 25  2  0
 16 27  4  0
 17 18  4  0
 20 27  1  0
 24 27  4  0
 26 28  4  0
M  END
$$$$

 Created by Python create_sdf_string function

 29 33  0  0  0  0  0  0  0  0999 V2000
    8.8270   -7.0288   18.4251 C   0  0  0  0  0  0  0  0  0  0  0  0
    9.1576   -4.6236   15.8860 O   0  0  0  0  0  0  0  0  0  0  0  0
    9.1509   -5.9108   17.7177 C   0  0  0  0  0  0  0  0  0  0  0  0
    3.6373   -9.5349   16.0582 N   0  0  0  0  0  0  0  0  0  0  0  0
    9.9275   -4.8001   18.0438 N   0  0  0  0  0  0  0  0  0  0  0  0
    8.5908   -5.7425   16.4412 C   0  0  0  0  0  0  0  0  0  0  0  0
   10.5993   -4.8981   21.6068 C   0  0  0  0  0  0  0  0  0  0  0  0
   10.4258   -3.0106   23.0998 C   0  0  0  0  0  0  0  0  0  0  0  0
   10.2148   -3.4364   25.4200 C   0  0  0  0  0  0  0  0  0  0  0  0
    9.7853   -1.1840   24.4927 C   0  0  0  0  0  0  0  0  0  0  0  0
    5.0276   -8.5227   17.5352 C   0  0  0  0  0  0  0  0  0  0  0  0
    9.8187   -2.0895   25.5800 C   0  0  0  0  0  0  0  0  0  0  0  0
    5.6473   -8.7216   15.3158 C   0  0  0  0  0  0  0  0  0  0  0  0
   10.7581   -3.1233   19.4720 N   0  0  0  0  0  0  0  0  0  0  0  0
    9.9571   -4.0573   16.8866 C   0  0  0  0  0  0  0  0  0  0  0  0
    7.6213   -6.5618   16.0087 C   0  0  0  0  0  0  0  0  0  0  0  0
   10.8583   -2.6527   20.7222 C   0  0  0  0  0  0  0  0  0  0  0  0
   10.6412   -3.5089   21.7936 C   0  0  0  0  0  0  0  0  0  0  0  0
   10.4972   -3.8968   24.1589 C   0  0  0  0  0  0  0  0  0  0  0  0
    5.9260   -8.2736   16.5517 C   0  0  0  0  0  0  0  0  0  0  0  0
    3.8816   -9.1166   17.2493 C   0  0  0  0  0  0  0  0  0  0  0  0
   10.1297   -1.6575   23.2324 C   0  0  0  0  0  0  0  0  0  0  0  0
    9.4684   -1.6929   26.7263 F   0  0  0  0  0  0  0  0  0  0  0  0
    7.7963   -7.7906   17.9837 C   0  0  0  0  0  0  0  0  0  0  0  0
   10.5884   -3.0725   16.7902 O   0  0  0  0  0  0  0  0  0  0  0  0
   10.4323   -5.3494   20.3516 C   0  0  0  0  0  0  0  0  0  0  0  0
    7.1156   -7.5454   16.8218 C   0  0  0  0  0  0  0  0  0  0  0  0
   10.3885   -4.4388   19.2773 C   0  0  0  0  0  0  0  0  0  0  0  0
    4.5160   -9.3822   15.0841 C   0  0  0  0  0  0  0  0  0  0  0  0
  1  3  4  0
  1 24  4  0
  2  6  4  0
  2 15  4  0
  3  5  4  0
  3  6  4  0
  4 21  4  0
  4 29  4  0
  5 15  4  0
  5 28  1  0
  6 16  4  0
  7 18  4  0
  7 26  4  0
  8 18  1  0
  8 19  4  0
  8 22  4  0
  9 12  4  0
  9 19  4  0
 10 12  4  0
 10 22  4  0
 11 20  4  0
 11 21  4  0
 12 23  1  0
 13 20  4  0
 13 29  4  0
 14 17  4  0
 14 28  4  0
 15 25  2  0
 16 27  4  0
 17 18  4  0
 20 27  1  0
 24 27  4  0
 26 28  4  0
M  END
$$$$

 Created by Python create_sdf_string function

 29 33  0  0  0  0  0  0  0  0999 V2000
    8.8270   -7.0288   18.4251 C   0  0  0  0  0  0  0  0  0  0  0  0
    9.1576   -4.6236   15.8860 O   0  0  0  0  0  0  0  0  0  0  0  0
    9.1509   -5.9108   17.7177 C   0  0  0  0  0  0  0  0  0  0  0  0
    3.6373   -9.5349   16.0582 N   0  0  0  0  0  0  0  0  0  0  0  0
    9.9275   -4.8001   18.0438 N   0  0  0  0  0  0  0  0  0  0  0  0
    8.5908   -5.7425   16.4412 C   0  0  0  0  0  0  0  0  0  0  0  0
   10.5993   -4.8981   21.6068 C   0  0  0  0  0  0  0  0  0  0  0  0
   10.4258   -3.0106   23.0998 C   0  0  0  0  0  0  0  0  0  0  0  0
   10.2148   -3.4364   25.4200 C   0  0  0  0  0  0  0  0  0  0  0  0
    9.7853   -1.1840   24.4927 C   0  0  0  0  0  0  0  0  0  0  0  0
    5.0276   -8.5227   17.5352 C   0  0  0  0  0  0  0  0  0  0  0  0
    9.8187   -2.0895   25.5800 C   0  0  0  0  0  0  0  0  0  0  0  0
    5.6473   -8.7216   15.3158 C   0  0  0  0  0  0  0  0  0  0  0  0
   10.7581   -3.1233   19.4720 N   0  0  0  0  0  0  0  0  0  0  0  0
    9.9571   -4.0573   16.8866 C   0  0  0  0  0  0  0  0  0  0  0  0
    7.6213   -6.5618   16.0087 C   0  0  0  0  0  0  0  0  0  0  0  0
   10.8583   -2.6527   20.7222 C   0  0  0  0  0  0  0  0  0  0  0  0
   10.6412   -3.5089   21.7936 C   0  0  0  0  0  0  0  0  0  0  0  0
   10.4972   -3.8968   24.1589 C   0  0  0  0  0  0  0  0  0  0  0  0
    5.9260   -8.2736   16.5517 C   0  0  0  0  0  0  0  0  0  0  0  0
    3.8816   -9.1166   17.2493 C   0  0  0  0  0  0  0  0  0  0  0  0
   10.1297   -1.6575   23.2324 C   0  0  0  0  0  0  0  0  0  0  0  0
    9.4684   -1.6929   26.7263 F   0  0  0  0  0  0  0  0  0  0  0  0
    7.7963   -7.7906   17.9837 C   0  0  0  0  0  0  0  0  0  0  0  0
   10.5884   -3.0725   16.7902 O   0  0  0  0  0  0  0  0  0  0  0  0
   10.4323   -5.3494   20.3516 C   0  0  0  0  0  0  0  0  0  0  0  0
    7.1156   -7.5454   16.8218 C   0  0  0  0  0  0  0  0  0  0  0  0
   10.3885   -4.4388   19.2773 C   0  0  0  0  0  0  0  0  0  0  0  0
    4.5160   -9.3822   15.0841 C   0  0  0  0  0  0  0  0  0  0  0  0
  1  3  4  0
  1 24  4  0
  2  6  4  0
  2 15  4  0
  3  5  4  0
  3  6  4  0
  4 21  4  0
  4 29  4  0
  5 15  4  0
  5 28  1  0
  6 16  4  0
  7 18  4  0
  7 26  4  0
  8 18  1  0
  8 19  4  0
  8 22  4  0
  9 12  4  0
  9 19  4  0
 10 12  4  0
 10 22  4  0
 11 20  4  0
 11 21  4  0
 12 23  1  0
 13 20  4  0
 13 29  4  0
 14 17  4  0
 14 28  4  0
 15 25  2  0
 16 27  4  0
 17 18  4  0
 20 27  1  0
 24 27  4  0
 26 28  4  0
M  END
$$$$

 Created by Python create_sdf_string function

 29 33  0  0  0  0  0  0  0  0999 V2000
    8.8270   -7.0288   18.4251 C   0  0  0  0  0  0  0  0  0  0  0  0
    9.1576   -4.6236   15.8860 O   0  0  0  0  0  0  0  0  0  0  0  0
    9.1509   -5.9108   17.7177 C   0  0  0  0  0  0  0  0  0  0  0  0
    3.6373   -9.5349   16.0582 N   0  0  0  0  0  0  0  0  0  0  0  0
    9.9275   -4.8001   18.0438 N   0  0  0  0  0  0  0  0  0  0  0  0
    8.5908   -5.7425   16.4412 C   0  0  0  0  0  0  0  0  0  0  0  0
   10.5993   -4.8981   21.6068 C   0  0  0  0  0  0  0  0  0  0  0  0
   10.4258   -3.0106   23.0998 C   0  0  0  0  0  0  0  0  0  0  0  0
   10.2148   -3.4364   25.4200 C   0  0  0  0  0  0  0  0  0  0  0  0
    9.7853   -1.1840   24.4927 C   0  0  0  0  0  0  0  0  0  0  0  0
    5.0276   -8.5227   17.5352 C   0  0  0  0  0  0  0  0  0  0  0  0
    9.8187   -2.0895   25.5800 C   0  0  0  0  0  0  0  0  0  0  0  0
    5.6473   -8.7216   15.3158 C   0  0  0  0  0  0  0  0  0  0  0  0
   10.7581   -3.1233   19.4720 N   0  0  0  0  0  0  0  0  0  0  0  0
    9.9571   -4.0573   16.8866 C   0  0  0  0  0  0  0  0  0  0  0  0
    7.6213   -6.5618   16.0087 C   0  0  0  0  0  0  0  0  0  0  0  0
   10.8583   -2.6527   20.7222 C   0  0  0  0  0  0  0  0  0  0  0  0
   10.6412   -3.5089   21.7936 C   0  0  0  0  0  0  0  0  0  0  0  0
   10.4972   -3.8968   24.1589 C   0  0  0  0  0  0  0  0  0  0  0  0
    5.9260   -8.2736   16.5517 C   0  0  0  0  0  0  0  0  0  0  0  0
    3.8816   -9.1166   17.2493 C   0  0  0  0  0  0  0  0  0  0  0  0
   10.1297   -1.6575   23.2324 C   0  0  0  0  0  0  0  0  0  0  0  0
    9.4684   -1.6929   26.7263 F   0  0  0  0  0  0  0  0  0  0  0  0
    7.7963   -7.7906   17.9837 C   0  0  0  0  0  0  0  0  0  0  0  0
   10.5884   -3.0725   16.7902 O   0  0  0  0  0  0  0  0  0  0  0  0
   10.4323   -5.3494   20.3516 C   0  0  0  0  0  0  0  0  0  0  0  0
    7.1156   -7.5454   16.8218 C   0  0  0  0  0  0  0  0  0  0  0  0
   10.3885   -4.4388   19.2773 C   0  0  0  0  0  0  0  0  0  0  0  0
    4.5160   -9.3822   15.0841 C   0  0  0  0  0  0  0  0  0  0  0  0
  1  3  4  0
  1 24  4  0
  2  6  4  0
  2 15  4  0
  3  5  4  0
  3  6  4  0
  4 21  4  0
  4 29  4  0
  5 15  4  0
  5 28  1  0
  6 16  4  0
  7 18  4  0
  7 26  4  0
  8 18  1  0
  8 19  4  0
  8 22  4  0
  9 12  4  0
  9 19  4  0
 10 12  4  0
 10 22  4  0
 11 20  4  0
 11 21  4  0
 12 23  1  0
 13 20  4  0
 13 29  4  0
 14 17  4  0
 14 28  4  0
 15 25  2  0
 16 27  4  0
 17 18  4  0
 20 27  1  0
 24 27  4  0
 26 28  4  0
M  END
$$$$

 Created by Python create_sdf_string function

 29 33  0  0  0  0  0  0  0  0999 V2000
    8.8270   -7.0288   18.4251 C   0  0  0  0  0  0  0  0  0  0  0  0
    9.1576   -4.6236   15.8860 O   0  0  0  0  0  0  0  0  0  0  0  0
    9.1509   -5.9108   17.7177 C   0  0  0  0  0  0  0  0  0  0  0  0
    3.6373   -9.5349   16.0582 N   0  0  0  0  0  0  0  0  0  0  0  0
    9.9275   -4.8001   18.0438 N   0  0  0  0  0  0  0  0  0  0  0  0
    8.5908   -5.7425   16.4412 C   0  0  0  0  0  0  0  0  0  0  0  0
   10.5993   -4.8981   21.6068 C   0  0  0  0  0  0  0  0  0  0  0  0
   10.4258   -3.0106   23.0998 C   0  0  0  0  0  0  0  0  0  0  0  0
   10.2148   -3.4364   25.4200 C   0  0  0  0  0  0  0  0  0  0  0  0
    9.7853   -1.1840   24.4927 C   0  0  0  0  0  0  0  0  0  0  0  0
    5.0276   -8.5227   17.5352 C   0  0  0  0  0  0  0  0  0  0  0  0
    9.8187   -2.0895   25.5800 C   0  0  0  0  0  0  0  0  0  0  0  0
    5.6473   -8.7216   15.3158 C   0  0  0  0  0  0  0  0  0  0  0  0
   10.7581   -3.1233   19.4720 N   0  0  0  0  0  0  0  0  0  0  0  0
    9.9571   -4.0573   16.8866 C   0  0  0  0  0  0  0  0  0  0  0  0
    7.6213   -6.5618   16.0087 C   0  0  0  0  0  0  0  0  0  0  0  0
   10.8583   -2.6527   20.7222 C   0  0  0  0  0  0  0  0  0  0  0  0
   10.6412   -3.5089   21.7936 C   0  0  0  0  0  0  0  0  0  0  0  0
   10.4972   -3.8968   24.1589 C   0  0  0  0  0  0  0  0  0  0  0  0
    5.9260   -8.2736   16.5517 C   0  0  0  0  0  0  0  0  0  0  0  0
    3.8816   -9.1166   17.2493 C   0  0  0  0  0  0  0  0  0  0  0  0
   10.1297   -1.6575   23.2324 C   0  0  0  0  0  0  0  0  0  0  0  0
    9.4684   -1.6929   26.7263 F   0  0  0  0  0  0  0  0  0  0  0  0
    7.7963   -7.7906   17.9837 C   0  0  0  0  0  0  0  0  0  0  0  0
   10.5884   -3.0725   16.7902 O   0  0  0  0  0  0  0  0  0  0  0  0
   10.4323   -5.3494   20.3516 C   0  0  0  0  0  0  0  0  0  0  0  0
    7.1156   -7.5454   16.8218 C   0  0  0  0  0  0  0  0  0  0  0  0
   10.3885   -4.4388   19.2773 C   0  0  0  0  0  0  0  0  0  0  0  0
    4.5160   -9.3822   15.0841 C   0  0  0  0  0  0  0  0  0  0  0  0
  1  3  4  0
  1 24  4  0
  2  6  4  0
  2 15  4  0
  3  5  4  0
  3  6  4  0
  4 21  4  0
  4 29  4  0
  5 15  4  0
  5 28  1  0
  6 16  4  0
  7 18  4  0
  7 26  4  0
  8 18  1  0
  8 19  4  0
  8 22  4  0
  9 12  4  0
  9 19  4  0
 10 12  4  0
 10 22  4  0
 11 20  4  0
 11 21  4  0
 12 23  1  0
 13 20  4  0
 13 29  4  0
 14 17  4  0
 14 28  4  0
 15 25  2  0
 16 27  4  0
 17 18  4  0
 20 27  1  0
 24 27  4  0
 26 28  4  0
M  END
$$$$

 Created by Python create_sdf_string function

 29 33  0  0  0  0  0  0  0  0999 V2000
    8.8270   -7.0288   18.4251 C   0  0  0  0  0  0  0  0  0  0  0  0
    9.1576   -4.6236   15.8860 O   0  0  0  0  0  0  0  0  0  0  0  0
    9.1509   -5.9108   17.7177 C   0  0  0  0  0  0  0  0  0  0  0  0
    3.6373   -9.5349   16.0582 N   0  0  0  0  0  0  0  0  0  0  0  0
    9.9275   -4.8001   18.0438 N   0  0  0  0  0  0  0  0  0  0  0  0
    8.5908   -5.7425   16.4412 C   0  0  0  0  0  0  0  0  0  0  0  0
   10.5993   -4.8981   21.6068 C   0  0  0  0  0  0  0  0  0  0  0  0
   10.4258   -3.0106   23.0998 C   0  0  0  0  0  0  0  0  0  0  0  0
   10.2148   -3.4364   25.4200 C   0  0  0  0  0  0  0  0  0  0  0  0
    9.7853   -1.1840   24.4927 C   0  0  0  0  0  0  0  0  0  0  0  0
    5.0276   -8.5227   17.5352 C   0  0  0  0  0  0  0  0  0  0  0  0
    9.8187   -2.0895   25.5800 C   0  0  0  0  0  0  0  0  0  0  0  0
    5.6473   -8.7216   15.3158 C   0  0  0  0  0  0  0  0  0  0  0  0
   10.7581   -3.1233   19.4720 N   0  0  0  0  0  0  0  0  0  0  0  0
    9.9571   -4.0573   16.8866 C   0  0  0  0  0  0  0  0  0  0  0  0
    7.6213   -6.5618   16.0087 C   0  0  0  0  0  0  0  0  0  0  0  0
   10.8583   -2.6527   20.7222 C   0  0  0  0  0  0  0  0  0  0  0  0
   10.6412   -3.5089   21.7936 C   0  0  0  0  0  0  0  0  0  0  0  0
   10.4972   -3.8968   24.1589 C   0  0  0  0  0  0  0  0  0  0  0  0
    5.9260   -8.2736   16.5517 C   0  0  0  0  0  0  0  0  0  0  0  0
    3.8816   -9.1166   17.2493 C   0  0  0  0  0  0  0  0  0  0  0  0
   10.1297   -1.6575   23.2324 C   0  0  0  0  0  0  0  0  0  0  0  0
    9.4684   -1.6929   26.7263 F   0  0  0  0  0  0  0  0  0  0  0  0
    7.7963   -7.7906   17.9837 C   0  0  0  0  0  0  0  0  0  0  0  0
   10.5884   -3.0725   16.7902 O   0  0  0  0  0  0  0  0  0  0  0  0
   10.4323   -5.3494   20.3516 C   0  0  0  0  0  0  0  0  0  0  0  0
    7.1156   -7.5454   16.8218 C   0  0  0  0  0  0  0  0  0  0  0  0
   10.3885   -4.4388   19.2773 C   0  0  0  0  0  0  0  0  0  0  0  0
    4.5160   -9.3822   15.0841 C   0  0  0  0  0  0  0  0  0  0  0  0
  1  3  4  0
  1 24  4  0
  2  6  4  0
  2 15  4  0
  3  5  4  0
  3  6  4  0
  4 21  4  0
  4 29  4  0
  5 15  4  0
  5 28  1  0
  6 16  4  0
  7 18  4  0
  7 26  4  0
  8 18  1  0
  8 19  4  0
  8 22  4  0
  9 12  4  0
  9 19  4  0
 10 12  4  0
 10 22  4  0
 11 20  4  0
 11 21  4  0
 12 23  1  0
 13 20  4  0
 13 29  4  0
 14 17  4  0
 14 28  4  0
 15 25  2  0
 16 27  4  0
 17 18  4  0
 20 27  1  0
 24 27  4  0
 26 28  4  0
M  END
$$$$

 Created by Python create_sdf_string function

 29 33  0  0  0  0  0  0  0  0999 V2000
    8.8270   -7.0288   18.4251 C   0  0  0  0  0  0  0  0  0  0  0  0
    9.1576   -4.6236   15.8860 O   0  0  0  0  0  0  0  0  0  0  0  0
    9.1509   -5.9108   17.7177 C   0  0  0  0  0  0  0  0  0  0  0  0
    3.6373   -9.5349   16.0582 N   0  0  0  0  0  0  0  0  0  0  0  0
    9.9275   -4.8001   18.0438 N   0  0  0  0  0  0  0  0  0  0  0  0
    8.5908   -5.7425   16.4412 C   0  0  0  0  0  0  0  0  0  0  0  0
   10.5993   -4.8981   21.6068 C   0  0  0  0  0  0  0  0  0  0  0  0
   10.4258   -3.0106   23.0998 C   0  0  0  0  0  0  0  0  0  0  0  0
   10.2148   -3.4364   25.4200 C   0  0  0  0  0  0  0  0  0  0  0  0
    9.7853   -1.1840   24.4927 C   0  0  0  0  0  0  0  0  0  0  0  0
    5.0276   -8.5227   17.5352 C   0  0  0  0  0  0  0  0  0  0  0  0
    9.8187   -2.0895   25.5800 C   0  0  0  0  0  0  0  0  0  0  0  0
    5.6473   -8.7216   15.3158 C   0  0  0  0  0  0  0  0  0  0  0  0
   10.7581   -3.1233   19.4720 N   0  0  0  0  0  0  0  0  0  0  0  0
    9.9571   -4.0573   16.8866 C   0  0  0  0  0  0  0  0  0  0  0  0
    7.6213   -6.5618   16.0087 C   0  0  0  0  0  0  0  0  0  0  0  0
   10.8583   -2.6527   20.7222 C   0  0  0  0  0  0  0  0  0  0  0  0
   10.6412   -3.5089   21.7936 C   0  0  0  0  0  0  0  0  0  0  0  0
   10.4972   -3.8968   24.1589 C   0  0  0  0  0  0  0  0  0  0  0  0
    5.9260   -8.2736   16.5517 C   0  0  0  0  0  0  0  0  0  0  0  0
    3.8816   -9.1166   17.2493 C   0  0  0  0  0  0  0  0  0  0  0  0
   10.1297   -1.6575   23.2324 C   0  0  0  0  0  0  0  0  0  0  0  0
    9.4684   -1.6929   26.7263 F   0  0  0  0  0  0  0  0  0  0  0  0
    7.7963   -7.7906   17.9837 C   0  0  0  0  0  0  0  0  0  0  0  0
   10.5884   -3.0725   16.7902 O   0  0  0  0  0  0  0  0  0  0  0  0
   10.4323   -5.3494   20.3516 C   0  0  0  0  0  0  0  0  0  0  0  0
    7.1156   -7.5454   16.8218 C   0  0  0  0  0  0  0  0  0  0  0  0
   10.3885   -4.4388   19.2773 C   0  0  0  0  0  0  0  0  0  0  0  0
    4.5160   -9.3822   15.0841 C   0  0  0  0  0  0  0  0  0  0  0  0
  1  3  4  0
  1 24  4  0
  2  6  4  0
  2 15  4  0
  3  5  4  0
  3  6  4  0
  4 21  4  0
  4 29  4  0
  5 15  4  0
  5 28  1  0
  6 16  4  0
  7 18  4  0
  7 26  4  0
  8 18  1  0
  8 19  4  0
  8 22  4  0
  9 12  4  0
  9 19  4  0
 10 12  4  0
 10 22  4  0
 11 20  4  0
 11 21  4  0
 12 23  1  0
 13 20  4  0
 13 29  4  0
 14 17  4  0
 14 28  4  0
 15 25  2  0
 16 27  4  0
 17 18  4  0
 20 27  1  0
 24 27  4  0
 26 28  4  0
M  END
$$$$

 Created by Python create_sdf_string function

 29 33  0  0  0  0  0  0  0  0999 V2000
    8.8270   -7.0288   18.4251 C   0  0  0  0  0  0  0  0  0  0  0  0
    9.1576   -4.6236   15.8860 O   0  0  0  0  0  0  0  0  0  0  0  0
    9.1509   -5.9108   17.7177 C   0  0  0  0  0  0  0  0  0  0  0  0
    3.6373   -9.5349   16.0582 N   0  0  0  0  0  0  0  0  0  0  0  0
    9.9275   -4.8001   18.0438 N   0  0  0  0  0  0  0  0  0  0  0  0
    8.5908   -5.7425   16.4412 C   0  0  0  0  0  0  0  0  0  0  0  0
   10.5993   -4.8981   21.6068 C   0  0  0  0  0  0  0  0  0  0  0  0
   10.4258   -3.0106   23.0998 C   0  0  0  0  0  0  0  0  0  0  0  0
   10.2148   -3.4364   25.4200 C   0  0  0  0  0  0  0  0  0  0  0  0
    9.7853   -1.1840   24.4927 C   0  0  0  0  0  0  0  0  0  0  0  0
    5.0276   -8.5227   17.5352 C   0  0  0  0  0  0  0  0  0  0  0  0
    9.8187   -2.0895   25.5800 C   0  0  0  0  0  0  0  0  0  0  0  0
    5.6473   -8.7216   15.3158 C   0  0  0  0  0  0  0  0  0  0  0  0
   10.7581   -3.1233   19.4720 N   0  0  0  0  0  0  0  0  0  0  0  0
    9.9571   -4.0573   16.8866 C   0  0  0  0  0  0  0  0  0  0  0  0
    7.6213   -6.5618   16.0087 C   0  0  0  0  0  0  0  0  0  0  0  0
   10.8583   -2.6527   20.7222 C   0  0  0  0  0  0  0  0  0  0  0  0
   10.6412   -3.5089   21.7936 C   0  0  0  0  0  0  0  0  0  0  0  0
   10.4972   -3.8968   24.1589 C   0  0  0  0  0  0  0  0  0  0  0  0
    5.9260   -8.2736   16.5517 C   0  0  0  0  0  0  0  0  0  0  0  0
    3.8816   -9.1166   17.2493 C   0  0  0  0  0  0  0  0  0  0  0  0
   10.1297   -1.6575   23.2324 C   0  0  0  0  0  0  0  0  0  0  0  0
    9.4684   -1.6929   26.7263 F   0  0  0  0  0  0  0  0  0  0  0  0
    7.7963   -7.7906   17.9837 C   0  0  0  0  0  0  0  0  0  0  0  0
   10.5884   -3.0725   16.7902 O   0  0  0  0  0  0  0  0  0  0  0  0
   10.4323   -5.3494   20.3516 C   0  0  0  0  0  0  0  0  0  0  0  0
    7.1156   -7.5454   16.8218 C   0  0  0  0  0  0  0  0  0  0  0  0
   10.3885   -4.4388   19.2773 C   0  0  0  0  0  0  0  0  0  0  0  0
    4.5160   -9.3822   15.0841 C   0  0  0  0  0  0  0  0  0  0  0  0
  1  3  4  0
  1 24  4  0
  2  6  4  0
  2 15  4  0
  3  5  4  0
  3  6  4  0
  4 21  4  0
  4 29  4  0
  5 15  4  0
  5 28  1  0
  6 16  4  0
  7 18  4  0
  7 26  4  0
  8 18  1  0
  8 19  4  0
  8 22  4  0
  9 12  4  0
  9 19  4  0
 10 12  4  0
 10 22  4  0
 11 20  4  0
 11 21  4  0
 12 23  1  0
 13 20  4  0
 13 29  4  0
 14 17  4  0
 14 28  4  0
 15 25  2  0
 16 27  4  0
 17 18  4  0
 20 27  1  0
 24 27  4  0
 26 28  4  0
M  END
$$$$

 Created by Python create_sdf_string function

 29 33  0  0  0  0  0  0  0  0999 V2000
    8.8270   -7.0288   18.4251 C   0  0  0  0  0  0  0  0  0  0  0  0
    9.1576   -4.6236   15.8860 O   0  0  0  0  0  0  0  0  0  0  0  0
    9.1509   -5.9108   17.7177 C   0  0  0  0  0  0  0  0  0  0  0  0
    3.6373   -9.5349   16.0582 N   0  0  0  0  0  0  0  0  0  0  0  0
    9.9275   -4.8001   18.0438 N   0  0  0  0  0  0  0  0  0  0  0  0
    8.5908   -5.7425   16.4412 C   0  0  0  0  0  0  0  0  0  0  0  0
   10.5993   -4.8981   21.6068 C   0  0  0  0  0  0  0  0  0  0  0  0
   10.4258   -3.0106   23.0998 C   0  0  0  0  0  0  0  0  0  0  0  0
   10.2148   -3.4364   25.4200 C   0  0  0  0  0  0  0  0  0  0  0  0
    9.7853   -1.1840   24.4927 C   0  0  0  0  0  0  0  0  0  0  0  0
    5.0276   -8.5227   17.5352 C   0  0  0  0  0  0  0  0  0  0  0  0
    9.8187   -2.0895   25.5800 C   0  0  0  0  0  0  0  0  0  0  0  0
    5.6473   -8.7216   15.3158 C   0  0  0  0  0  0  0  0  0  0  0  0
   10.7581   -3.1233   19.4720 N   0  0  0  0  0  0  0  0  0  0  0  0
    9.9571   -4.0573   16.8866 C   0  0  0  0  0  0  0  0  0  0  0  0
    7.6213   -6.5618   16.0087 C   0  0  0  0  0  0  0  0  0  0  0  0
   10.8583   -2.6527   20.7222 C   0  0  0  0  0  0  0  0  0  0  0  0
   10.6412   -3.5089   21.7936 C   0  0  0  0  0  0  0  0  0  0  0  0
   10.4972   -3.8968   24.1589 C   0  0  0  0  0  0  0  0  0  0  0  0
    5.9260   -8.2736   16.5517 C   0  0  0  0  0  0  0  0  0  0  0  0
    3.8816   -9.1166   17.2493 C   0  0  0  0  0  0  0  0  0  0  0  0
   10.1297   -1.6575   23.2324 C   0  0  0  0  0  0  0  0  0  0  0  0
    9.4684   -1.6929   26.7263 F   0  0  0  0  0  0  0  0  0  0  0  0
    7.7963   -7.7906   17.9837 C   0  0  0  0  0  0  0  0  0  0  0  0
   10.5884   -3.0725   16.7902 O   0  0  0  0  0  0  0  0  0  0  0  0
   10.4323   -5.3494   20.3516 C   0  0  0  0  0  0  0  0  0  0  0  0
    7.1156   -7.5454   16.8218 C   0  0  0  0  0  0  0  0  0  0  0  0
   10.3885   -4.4388   19.2773 C   0  0  0  0  0  0  0  0  0  0  0  0
    4.5160   -9.3822   15.0841 C   0  0  0  0  0  0  0  0  0  0  0  0
  1  3  4  0
  1 24  4  0
  2  6  4  0
  2 15  4  0
  3  5  4  0
  3  6  4  0
  4 21  4  0
  4 29  4  0
  5 15  4  0
  5 28  1  0
  6 16  4  0
  7 18  4  0
  7 26  4  0
  8 18  1  0
  8 19  4  0
  8 22  4  0
  9 12  4  0
  9 19  4  0
 10 12  4  0
 10 22  4  0
 11 20  4  0
 11 21  4  0
 12 23  1  0
 13 20  4  0
 13 29  4  0
 14 17  4  0
 14 28  4  0
 15 25  2  0
 16 27  4  0
 17 18  4  0
 20 27  1  0
 24 27  4  0
 26 28  4  0
M  END
$$$$

 Created by Python create_sdf_string function

 29 33  0  0  0  0  0  0  0  0999 V2000
    8.8270   -7.0288   18.4251 C   0  0  0  0  0  0  0  0  0  0  0  0
    9.1576   -4.6236   15.8860 O   0  0  0  0  0  0  0  0  0  0  0  0
    9.1509   -5.9108   17.7177 C   0  0  0  0  0  0  0  0  0  0  0  0
    3.6373   -9.5349   16.0582 N   0  0  0  0  0  0  0  0  0  0  0  0
    9.9275   -4.8001   18.0438 N   0  0  0  0  0  0  0  0  0  0  0  0
    8.5908   -5.7425   16.4412 C   0  0  0  0  0  0  0  0  0  0  0  0
   10.5993   -4.8981   21.6068 C   0  0  0  0  0  0  0  0  0  0  0  0
   10.4258   -3.0106   23.0998 C   0  0  0  0  0  0  0  0  0  0  0  0
   10.2148   -3.4364   25.4200 C   0  0  0  0  0  0  0  0  0  0  0  0
    9.7853   -1.1840   24.4927 C   0  0  0  0  0  0  0  0  0  0  0  0
    5.0276   -8.5227   17.5352 C   0  0  0  0  0  0  0  0  0  0  0  0
    9.8187   -2.0895   25.5800 C   0  0  0  0  0  0  0  0  0  0  0  0
    5.6473   -8.7216   15.3158 C   0  0  0  0  0  0  0  0  0  0  0  0
   10.7581   -3.1233   19.4720 N   0  0  0  0  0  0  0  0  0  0  0  0
    9.9571   -4.0573   16.8866 C   0  0  0  0  0  0  0  0  0  0  0  0
    7.6213   -6.5618   16.0087 C   0  0  0  0  0  0  0  0  0  0  0  0
   10.8583   -2.6527   20.7222 C   0  0  0  0  0  0  0  0  0  0  0  0
   10.6412   -3.5089   21.7936 C   0  0  0  0  0  0  0  0  0  0  0  0
   10.4972   -3.8968   24.1589 C   0  0  0  0  0  0  0  0  0  0  0  0
    5.9260   -8.2736   16.5517 C   0  0  0  0  0  0  0  0  0  0  0  0
    3.8816   -9.1166   17.2493 C   0  0  0  0  0  0  0  0  0  0  0  0
   10.1297   -1.6575   23.2324 C   0  0  0  0  0  0  0  0  0  0  0  0
    9.4684   -1.6929   26.7263 F   0  0  0  0  0  0  0  0  0  0  0  0
    7.7963   -7.7906   17.9837 C   0  0  0  0  0  0  0  0  0  0  0  0
   10.5884   -3.0725   16.7902 O   0  0  0  0  0  0  0  0  0  0  0  0
   10.4323   -5.3494   20.3516 C   0  0  0  0  0  0  0  0  0  0  0  0
    7.1156   -7.5454   16.8218 C   0  0  0  0  0  0  0  0  0  0  0  0
   10.3885   -4.4388   19.2773 C   0  0  0  0  0  0  0  0  0  0  0  0
    4.5160   -9.3822   15.0841 C   0  0  0  0  0  0  0  0  0  0  0  0
  1  3  4  0
  1 24  4  0
  2  6  4  0
  2 15  4  0
  3  5  4  0
  3  6  4  0
  4 21  4  0
  4 29  4  0
  5 15  4  0
  5 28  1  0
  6 16  4  0
  7 18  4  0
  7 26  4  0
  8 18  1  0
  8 19  4  0
  8 22  4  0
  9 12  4  0
  9 19  4  0
 10 12  4  0
 10 22  4  0
 11 20  4  0
 11 21  4  0
 12 23  1  0
 13 20  4  0
 13 29  4  0
 14 17  4  0
 14 28  4  0
 15 25  2  0
 16 27  4  0
 17 18  4  0
 20 27  1  0
 24 27  4  0
 26 28  4  0
M  END
$$$$

 Created by Python create_sdf_string function

 29 33  0  0  0  0  0  0  0  0999 V2000
    8.8270   -7.0288   18.4251 C   0  0  0  0  0  0  0  0  0  0  0  0
    9.1576   -4.6236   15.8860 O   0  0  0  0  0  0  0  0  0  0  0  0
    9.1509   -5.9108   17.7177 C   0  0  0  0  0  0  0  0  0  0  0  0
    3.6373   -9.5349   16.0582 N   0  0  0  0  0  0  0  0  0  0  0  0
    9.9275   -4.8001   18.0438 N   0  0  0  0  0  0  0  0  0  0  0  0
    8.5908   -5.7425   16.4412 C   0  0  0  0  0  0  0  0  0  0  0  0
   10.5993   -4.8981   21.6068 C   0  0  0  0  0  0  0  0  0  0  0  0
   10.4258   -3.0106   23.0998 C   0  0  0  0  0  0  0  0  0  0  0  0
   10.2148   -3.4364   25.4200 C   0  0  0  0  0  0  0  0  0  0  0  0
    9.7853   -1.1840   24.4927 C   0  0  0  0  0  0  0  0  0  0  0  0
    5.0276   -8.5227   17.5352 C   0  0  0  0  0  0  0  0  0  0  0  0
    9.8187   -2.0895   25.5800 C   0  0  0  0  0  0  0  0  0  0  0  0
    5.6473   -8.7216   15.3158 C   0  0  0  0  0  0  0  0  0  0  0  0
   10.7581   -3.1233   19.4720 N   0  0  0  0  0  0  0  0  0  0  0  0
    9.9571   -4.0573   16.8866 C   0  0  0  0  0  0  0  0  0  0  0  0
    7.6213   -6.5618   16.0087 C   0  0  0  0  0  0  0  0  0  0  0  0
   10.8583   -2.6527   20.7222 C   0  0  0  0  0  0  0  0  0  0  0  0
   10.6412   -3.5089   21.7936 C   0  0  0  0  0  0  0  0  0  0  0  0
   10.4972   -3.8968   24.1589 C   0  0  0  0  0  0  0  0  0  0  0  0
    5.9260   -8.2736   16.5517 C   0  0  0  0  0  0  0  0  0  0  0  0
    3.8816   -9.1166   17.2493 C   0  0  0  0  0  0  0  0  0  0  0  0
   10.1297   -1.6575   23.2324 C   0  0  0  0  0  0  0  0  0  0  0  0
    9.4684   -1.6929   26.7263 F   0  0  0  0  0  0  0  0  0  0  0  0
    7.7963   -7.7906   17.9837 C   0  0  0  0  0  0  0  0  0  0  0  0
   10.5884   -3.0725   16.7902 O   0  0  0  0  0  0  0  0  0  0  0  0
   10.4323   -5.3494   20.3516 C   0  0  0  0  0  0  0  0  0  0  0  0
    7.1156   -7.5454   16.8218 C   0  0  0  0  0  0  0  0  0  0  0  0
   10.3885   -4.4388   19.2773 C   0  0  0  0  0  0  0  0  0  0  0  0
    4.5160   -9.3822   15.0841 C   0  0  0  0  0  0  0  0  0  0  0  0
  1  3  4  0
  1 24  4  0
  2  6  4  0
  2 15  4  0
  3  5  4  0
  3  6  4  0
  4 21  4  0
  4 29  4  0
  5 15  4  0
  5 28  1  0
  6 16  4  0
  7 18  4  0
  7 26  4  0
  8 18  1  0
  8 19  4  0
  8 22  4  0
  9 12  4  0
  9 19  4  0
 10 12  4  0
 10 22  4  0
 11 20  4  0
 11 21  4  0
 12 23  1  0
 13 20  4  0
 13 29  4  0
 14 17  4  0
 14 28  4  0
 15 25  2  0
 16 27  4  0
 17 18  4  0
 20 27  1  0
 24 27  4  0
 26 28  4  0
M  END
$$$$

 Created by Python create_sdf_string function

 29 33  0  0  0  0  0  0  0  0999 V2000
    8.8270   -7.0288   18.4251 C   0  0  0  0  0  0  0  0  0  0  0  0
    9.1576   -4.6236   15.8860 O   0  0  0  0  0  0  0  0  0  0  0  0
    9.1509   -5.9108   17.7177 C   0  0  0  0  0  0  0  0  0  0  0  0
    3.6373   -9.5349   16.0582 N   0  0  0  0  0  0  0  0  0  0  0  0
    9.9275   -4.8001   18.0438 N   0  0  0  0  0  0  0  0  0  0  0  0
    8.5908   -5.7425   16.4412 C   0  0  0  0  0  0  0  0  0  0  0  0
   10.5993   -4.8981   21.6068 C   0  0  0  0  0  0  0  0  0  0  0  0
   10.4258   -3.0106   23.0998 C   0  0  0  0  0  0  0  0  0  0  0  0
   10.2148   -3.4364   25.4200 C   0  0  0  0  0  0  0  0  0  0  0  0
    9.7853   -1.1840   24.4927 C   0  0  0  0  0  0  0  0  0  0  0  0
    5.0276   -8.5227   17.5352 C   0  0  0  0  0  0  0  0  0  0  0  0
    9.8187   -2.0895   25.5800 C   0  0  0  0  0  0  0  0  0  0  0  0
    5.6473   -8.7216   15.3158 C   0  0  0  0  0  0  0  0  0  0  0  0
   10.7581   -3.1233   19.4720 N   0  0  0  0  0  0  0  0  0  0  0  0
    9.9571   -4.0573   16.8866 C   0  0  0  0  0  0  0  0  0  0  0  0
    7.6213   -6.5618   16.0087 C   0  0  0  0  0  0  0  0  0  0  0  0
   10.8583   -2.6527   20.7222 C   0  0  0  0  0  0  0  0  0  0  0  0
   10.6412   -3.5089   21.7936 C   0  0  0  0  0  0  0  0  0  0  0  0
   10.4972   -3.8968   24.1589 C   0  0  0  0  0  0  0  0  0  0  0  0
    5.9260   -8.2736   16.5517 C   0  0  0  0  0  0  0  0  0  0  0  0
    3.8816   -9.1166   17.2493 C   0  0  0  0  0  0  0  0  0  0  0  0
   10.1297   -1.6575   23.2324 C   0  0  0  0  0  0  0  0  0  0  0  0
    9.4684   -1.6929   26.7263 F   0  0  0  0  0  0  0  0  0  0  0  0
    7.7963   -7.7906   17.9837 C   0  0  0  0  0  0  0  0  0  0  0  0
   10.5884   -3.0725   16.7902 O   0  0  0  0  0  0  0  0  0  0  0  0
   10.4323   -5.3494   20.3516 C   0  0  0  0  0  0  0  0  0  0  0  0
    7.1156   -7.5454   16.8218 C   0  0  0  0  0  0  0  0  0  0  0  0
   10.3885   -4.4388   19.2773 C   0  0  0  0  0  0  0  0  0  0  0  0
    4.5160   -9.3822   15.0841 C   0  0  0  0  0  0  0  0  0  0  0  0
  1  3  4  0
  1 24  4  0
  2  6  4  0
  2 15  4  0
  3  5  4  0
  3  6  4  0
  4 21  4  0
  4 29  4  0
  5 15  4  0
  5 28  1  0
  6 16  4  0
  7 18  4  0
  7 26  4  0
  8 18  1  0
  8 19  4  0
  8 22  4  0
  9 12  4  0
  9 19  4  0
 10 12  4  0
 10 22  4  0
 11 20  4  0
 11 21  4  0
 12 23  1  0
 13 20  4  0
 13 29  4  0
 14 17  4  0
 14 28  4  0
 15 25  2  0
 16 27  4  0
 17 18  4  0
 20 27  1  0
 24 27  4  0
 26 28  4  0
M  END
$$$$

 Created by Python create_sdf_string function

 29 33  0  0  0  0  0  0  0  0999 V2000
    8.8270   -7.0288   18.4251 C   0  0  0  0  0  0  0  0  0  0  0  0
    9.1576   -4.6236   15.8860 O   0  0  0  0  0  0  0  0  0  0  0  0
    9.1509   -5.9108   17.7177 C   0  0  0  0  0  0  0  0  0  0  0  0
    3.6373   -9.5349   16.0582 N   0  0  0  0  0  0  0  0  0  0  0  0
    9.9275   -4.8001   18.0438 N   0  0  0  0  0  0  0  0  0  0  0  0
    8.5908   -5.7425   16.4412 C   0  0  0  0  0  0  0  0  0  0  0  0
   10.5993   -4.8981   21.6068 C   0  0  0  0  0  0  0  0  0  0  0  0
   10.4258   -3.0106   23.0998 C   0  0  0  0  0  0  0  0  0  0  0  0
   10.2148   -3.4364   25.4200 C   0  0  0  0  0  0  0  0  0  0  0  0
    9.7853   -1.1840   24.4927 C   0  0  0  0  0  0  0  0  0  0  0  0
    5.0276   -8.5227   17.5352 C   0  0  0  0  0  0  0  0  0  0  0  0
    9.8187   -2.0895   25.5800 C   0  0  0  0  0  0  0  0  0  0  0  0
    5.6473   -8.7216   15.3158 C   0  0  0  0  0  0  0  0  0  0  0  0
   10.7581   -3.1233   19.4720 N   0  0  0  0  0  0  0  0  0  0  0  0
    9.9571   -4.0573   16.8866 C   0  0  0  0  0  0  0  0  0  0  0  0
    7.6213   -6.5618   16.0087 C   0  0  0  0  0  0  0  0  0  0  0  0
   10.8583   -2.6527   20.7222 C   0  0  0  0  0  0  0  0  0  0  0  0
   10.6412   -3.5089   21.7936 C   0  0  0  0  0  0  0  0  0  0  0  0
   10.4972   -3.8968   24.1589 C   0  0  0  0  0  0  0  0  0  0  0  0
    5.9260   -8.2736   16.5517 C   0  0  0  0  0  0  0  0  0  0  0  0
    3.8816   -9.1166   17.2493 C   0  0  0  0  0  0  0  0  0  0  0  0
   10.1297   -1.6575   23.2324 C   0  0  0  0  0  0  0  0  0  0  0  0
    9.4684   -1.6929   26.7263 F   0  0  0  0  0  0  0  0  0  0  0  0
    7.7963   -7.7906   17.9837 C   0  0  0  0  0  0  0  0  0  0  0  0
   10.5884   -3.0725   16.7902 O   0  0  0  0  0  0  0  0  0  0  0  0
   10.4323   -5.3494   20.3516 C   0  0  0  0  0  0  0  0  0  0  0  0
    7.1156   -7.5454   16.8218 C   0  0  0  0  0  0  0  0  0  0  0  0
   10.3885   -4.4388   19.2773 C   0  0  0  0  0  0  0  0  0  0  0  0
    4.5160   -9.3822   15.0841 C   0  0  0  0  0  0  0  0  0  0  0  0
  1  3  4  0
  1 24  4  0
  2  6  4  0
  2 15  4  0
  3  5  4  0
  3  6  4  0
  4 21  4  0
  4 29  4  0
  5 15  4  0
  5 28  1  0
  6 16  4  0
  7 18  4  0
  7 26  4  0
  8 18  1  0
  8 19  4  0
  8 22  4  0
  9 12  4  0
  9 19  4  0
 10 12  4  0
 10 22  4  0
 11 20  4  0
 11 21  4  0
 12 23  1  0
 13 20  4  0
 13 29  4  0
 14 17  4  0
 14 28  4  0
 15 25  2  0
 16 27  4  0
 17 18  4  0
 20 27  1  0
 24 27  4  0
 26 28  4  0
M  END
$$$$

 Created by Python create_sdf_string function

 29 33  0  0  0  0  0  0  0  0999 V2000
    8.8270   -7.0288   18.4251 C   0  0  0  0  0  0  0  0  0  0  0  0
    9.1576   -4.6236   15.8860 O   0  0  0  0  0  0  0  0  0  0  0  0
    9.1509   -5.9108   17.7177 C   0  0  0  0  0  0  0  0  0  0  0  0
    3.6373   -9.5349   16.0582 N   0  0  0  0  0  0  0  0  0  0  0  0
    9.9275   -4.8001   18.0438 N   0  0  0  0  0  0  0  0  0  0  0  0
    8.5908   -5.7425   16.4412 C   0  0  0  0  0  0  0  0  0  0  0  0
   10.5993   -4.8981   21.6068 C   0  0  0  0  0  0  0  0  0  0  0  0
   10.4258   -3.0106   23.0998 C   0  0  0  0  0  0  0  0  0  0  0  0
   10.2148   -3.4364   25.4200 C   0  0  0  0  0  0  0  0  0  0  0  0
    9.7853   -1.1840   24.4927 C   0  0  0  0  0  0  0  0  0  0  0  0
    5.0276   -8.5227   17.5352 C   0  0  0  0  0  0  0  0  0  0  0  0
    9.8187   -2.0895   25.5800 C   0  0  0  0  0  0  0  0  0  0  0  0
    5.6473   -8.7216   15.3158 C   0  0  0  0  0  0  0  0  0  0  0  0
   10.7581   -3.1233   19.4720 N   0  0  0  0  0  0  0  0  0  0  0  0
    9.9571   -4.0573   16.8866 C   0  0  0  0  0  0  0  0  0  0  0  0
    7.6213   -6.5618   16.0087 C   0  0  0  0  0  0  0  0  0  0  0  0
   10.8583   -2.6527   20.7222 C   0  0  0  0  0  0  0  0  0  0  0  0
   10.6412   -3.5089   21.7936 C   0  0  0  0  0  0  0  0  0  0  0  0
   10.4972   -3.8968   24.1589 C   0  0  0  0  0  0  0  0  0  0  0  0
    5.9260   -8.2736   16.5517 C   0  0  0  0  0  0  0  0  0  0  0  0
    3.8816   -9.1166   17.2493 C   0  0  0  0  0  0  0  0  0  0  0  0
   10.1297   -1.6575   23.2324 C   0  0  0  0  0  0  0  0  0  0  0  0
    9.4684   -1.6929   26.7263 F   0  0  0  0  0  0  0  0  0  0  0  0
    7.7963   -7.7906   17.9837 C   0  0  0  0  0  0  0  0  0  0  0  0
   10.5884   -3.0725   16.7902 O   0  0  0  0  0  0  0  0  0  0  0  0
   10.4323   -5.3494   20.3516 C   0  0  0  0  0  0  0  0  0  0  0  0
    7.1156   -7.5454   16.8218 C   0  0  0  0  0  0  0  0  0  0  0  0
   10.3885   -4.4388   19.2773 C   0  0  0  0  0  0  0  0  0  0  0  0
    4.5160   -9.3822   15.0841 C   0  0  0  0  0  0  0  0  0  0  0  0
  1  3  4  0
  1 24  4  0
  2  6  4  0
  2 15  4  0
  3  5  4  0
  3  6  4  0
  4 21  4  0
  4 29  4  0
  5 15  4  0
  5 28  1  0
  6 16  4  0
  7 18  4  0
  7 26  4  0
  8 18  1  0
  8 19  4  0
  8 22  4  0
  9 12  4  0
  9 19  4  0
 10 12  4  0
 10 22  4  0
 11 20  4  0
 11 21  4  0
 12 23  1  0
 13 20  4  0
 13 29  4  0
 14 17  4  0
 14 28  4  0
 15 25  2  0
 16 27  4  0
 17 18  4  0
 20 27  1  0
 24 27  4  0
 26 28  4  0
M  END
$$$$

 Created by Python create_sdf_string function

 29 33  0  0  0  0  0  0  0  0999 V2000
    8.8270   -7.0288   18.4251 C   0  0  0  0  0  0  0  0  0  0  0  0
    9.1576   -4.6236   15.8860 O   0  0  0  0  0  0  0  0  0  0  0  0
    9.1509   -5.9108   17.7177 C   0  0  0  0  0  0  0  0  0  0  0  0
    3.6373   -9.5349   16.0582 N   0  0  0  0  0  0  0  0  0  0  0  0
    9.9275   -4.8001   18.0438 N   0  0  0  0  0  0  0  0  0  0  0  0
    8.5908   -5.7425   16.4412 C   0  0  0  0  0  0  0  0  0  0  0  0
   10.5993   -4.8981   21.6068 C   0  0  0  0  0  0  0  0  0  0  0  0
   10.4258   -3.0106   23.0998 C   0  0  0  0  0  0  0  0  0  0  0  0
   10.2148   -3.4364   25.4200 C   0  0  0  0  0  0  0  0  0  0  0  0
    9.7853   -1.1840   24.4927 C   0  0  0  0  0  0  0  0  0  0  0  0
    5.0276   -8.5227   17.5352 C   0  0  0  0  0  0  0  0  0  0  0  0
    9.8187   -2.0895   25.5800 C   0  0  0  0  0  0  0  0  0  0  0  0
    5.6473   -8.7216   15.3158 C   0  0  0  0  0  0  0  0  0  0  0  0
   10.7581   -3.1233   19.4720 N   0  0  0  0  0  0  0  0  0  0  0  0
    9.9571   -4.0573   16.8866 C   0  0  0  0  0  0  0  0  0  0  0  0
    7.6213   -6.5618   16.0087 C   0  0  0  0  0  0  0  0  0  0  0  0
   10.8583   -2.6527   20.7222 C   0  0  0  0  0  0  0  0  0  0  0  0
   10.6412   -3.5089   21.7936 C   0  0  0  0  0  0  0  0  0  0  0  0
   10.4972   -3.8968   24.1589 C   0  0  0  0  0  0  0  0  0  0  0  0
    5.9260   -8.2736   16.5517 C   0  0  0  0  0  0  0  0  0  0  0  0
    3.8816   -9.1166   17.2493 C   0  0  0  0  0  0  0  0  0  0  0  0
   10.1297   -1.6575   23.2324 C   0  0  0  0  0  0  0  0  0  0  0  0
    9.4684   -1.6929   26.7263 F   0  0  0  0  0  0  0  0  0  0  0  0
    7.7963   -7.7906   17.9837 C   0  0  0  0  0  0  0  0  0  0  0  0
   10.5884   -3.0725   16.7902 O   0  0  0  0  0  0  0  0  0  0  0  0
   10.4323   -5.3494   20.3516 C   0  0  0  0  0  0  0  0  0  0  0  0
    7.1156   -7.5454   16.8218 C   0  0  0  0  0  0  0  0  0  0  0  0
   10.3885   -4.4388   19.2773 C   0  0  0  0  0  0  0  0  0  0  0  0
    4.5160   -9.3822   15.0841 C   0  0  0  0  0  0  0  0  0  0  0  0
  1  3  4  0
  1 24  4  0
  2  6  4  0
  2 15  4  0
  3  5  4  0
  3  6  4  0
  4 21  4  0
  4 29  4  0
  5 15  4  0
  5 28  1  0
  6 16  4  0
  7 18  4  0
  7 26  4  0
  8 18  1  0
  8 19  4  0
  8 22  4  0
  9 12  4  0
  9 19  4  0
 10 12  4  0
 10 22  4  0
 11 20  4  0
 11 21  4  0
 12 23  1  0
 13 20  4  0
 13 29  4  0
 14 17  4  0
 14 28  4  0
 15 25  2  0
 16 27  4  0
 17 18  4  0
 20 27  1  0
 24 27  4  0
 26 28  4  0
M  END
$$$$

 Created by Python create_sdf_string function

 29 33  0  0  0  0  0  0  0  0999 V2000
    8.8270   -7.0288   18.4251 C   0  0  0  0  0  0  0  0  0  0  0  0
    9.1576   -4.6236   15.8860 O   0  0  0  0  0  0  0  0  0  0  0  0
    9.1509   -5.9108   17.7177 C   0  0  0  0  0  0  0  0  0  0  0  0
    3.6373   -9.5349   16.0582 N   0  0  0  0  0  0  0  0  0  0  0  0
    9.9275   -4.8001   18.0438 N   0  0  0  0  0  0  0  0  0  0  0  0
    8.5908   -5.7425   16.4412 C   0  0  0  0  0  0  0  0  0  0  0  0
   10.5993   -4.8981   21.6068 C   0  0  0  0  0  0  0  0  0  0  0  0
   10.4258   -3.0106   23.0998 C   0  0  0  0  0  0  0  0  0  0  0  0
   10.2148   -3.4364   25.4200 C   0  0  0  0  0  0  0  0  0  0  0  0
    9.7853   -1.1840   24.4927 C   0  0  0  0  0  0  0  0  0  0  0  0
    5.0276   -8.5227   17.5352 C   0  0  0  0  0  0  0  0  0  0  0  0
    9.8187   -2.0895   25.5800 C   0  0  0  0  0  0  0  0  0  0  0  0
    5.6473   -8.7216   15.3158 C   0  0  0  0  0  0  0  0  0  0  0  0
   10.7581   -3.1233   19.4720 N   0  0  0  0  0  0  0  0  0  0  0  0
    9.9571   -4.0573   16.8866 C   0  0  0  0  0  0  0  0  0  0  0  0
    7.6213   -6.5618   16.0087 C   0  0  0  0  0  0  0  0  0  0  0  0
   10.8583   -2.6527   20.7222 C   0  0  0  0  0  0  0  0  0  0  0  0
   10.6412   -3.5089   21.7936 C   0  0  0  0  0  0  0  0  0  0  0  0
   10.4972   -3.8968   24.1589 C   0  0  0  0  0  0  0  0  0  0  0  0
    5.9260   -8.2736   16.5517 C   0  0  0  0  0  0  0  0  0  0  0  0
    3.8816   -9.1166   17.2493 C   0  0  0  0  0  0  0  0  0  0  0  0
   10.1297   -1.6575   23.2324 C   0  0  0  0  0  0  0  0  0  0  0  0
    9.4684   -1.6929   26.7263 F   0  0  0  0  0  0  0  0  0  0  0  0
    7.7963   -7.7906   17.9837 C   0  0  0  0  0  0  0  0  0  0  0  0
   10.5884   -3.0725   16.7902 O   0  0  0  0  0  0  0  0  0  0  0  0
   10.4323   -5.3494   20.3516 C   0  0  0  0  0  0  0  0  0  0  0  0
    7.1156   -7.5454   16.8218 C   0  0  0  0  0  0  0  0  0  0  0  0
   10.3885   -4.4388   19.2773 C   0  0  0  0  0  0  0  0  0  0  0  0
    4.5160   -9.3822   15.0841 C   0  0  0  0  0  0  0  0  0  0  0  0
  1  3  4  0
  1 24  4  0
  2  6  4  0
  2 15  4  0
  3  5  4  0
  3  6  4  0
  4 21  4  0
  4 29  4  0
  5 15  4  0
  5 28  1  0
  6 16  4  0
  7 18  4  0
  7 26  4  0
  8 18  1  0
  8 19  4  0
  8 22  4  0
  9 12  4  0
  9 19  4  0
 10 12  4  0
 10 22  4  0
 11 20  4  0
 11 21  4  0
 12 23  1  0
 13 20  4  0
 13 29  4  0
 14 17  4  0
 14 28  4  0
 15 25  2  0
 16 27  4  0
 17 18  4  0
 20 27  1  0
 24 27  4  0
 26 28  4  0
M  END
$$$$

 Created by Python create_sdf_string function

 29 33  0  0  0  0  0  0  0  0999 V2000
    8.8270   -7.0288   18.4251 C   0  0  0  0  0  0  0  0  0  0  0  0
    9.1576   -4.6236   15.8860 O   0  0  0  0  0  0  0  0  0  0  0  0
    9.1509   -5.9108   17.7177 C   0  0  0  0  0  0  0  0  0  0  0  0
    3.6373   -9.5349   16.0582 N   0  0  0  0  0  0  0  0  0  0  0  0
    9.9275   -4.8001   18.0438 N   0  0  0  0  0  0  0  0  0  0  0  0
    8.5908   -5.7425   16.4412 C   0  0  0  0  0  0  0  0  0  0  0  0
   10.5993   -4.8981   21.6068 C   0  0  0  0  0  0  0  0  0  0  0  0
   10.4258   -3.0106   23.0998 C   0  0  0  0  0  0  0  0  0  0  0  0
   10.2148   -3.4364   25.4200 C   0  0  0  0  0  0  0  0  0  0  0  0
    9.7853   -1.1840   24.4927 C   0  0  0  0  0  0  0  0  0  0  0  0
    5.0276   -8.5227   17.5352 C   0  0  0  0  0  0  0  0  0  0  0  0
    9.8187   -2.0895   25.5800 C   0  0  0  0  0  0  0  0  0  0  0  0
    5.6473   -8.7216   15.3158 C   0  0  0  0  0  0  0  0  0  0  0  0
   10.7581   -3.1233   19.4720 N   0  0  0  0  0  0  0  0  0  0  0  0
    9.9571   -4.0573   16.8866 C   0  0  0  0  0  0  0  0  0  0  0  0
    7.6213   -6.5618   16.0087 C   0  0  0  0  0  0  0  0  0  0  0  0
   10.8583   -2.6527   20.7222 C   0  0  0  0  0  0  0  0  0  0  0  0
   10.6412   -3.5089   21.7936 C   0  0  0  0  0  0  0  0  0  0  0  0
   10.4972   -3.8968   24.1589 C   0  0  0  0  0  0  0  0  0  0  0  0
    5.9260   -8.2736   16.5517 C   0  0  0  0  0  0  0  0  0  0  0  0
    3.8816   -9.1166   17.2493 C   0  0  0  0  0  0  0  0  0  0  0  0
   10.1297   -1.6575   23.2324 C   0  0  0  0  0  0  0  0  0  0  0  0
    9.4684   -1.6929   26.7263 F   0  0  0  0  0  0  0  0  0  0  0  0
    7.7963   -7.7906   17.9837 C   0  0  0  0  0  0  0  0  0  0  0  0
   10.5884   -3.0725   16.7902 O   0  0  0  0  0  0  0  0  0  0  0  0
   10.4323   -5.3494   20.3516 C   0  0  0  0  0  0  0  0  0  0  0  0
    7.1156   -7.5454   16.8218 C   0  0  0  0  0  0  0  0  0  0  0  0
   10.3885   -4.4388   19.2773 C   0  0  0  0  0  0  0  0  0  0  0  0
    4.5160   -9.3822   15.0841 C   0  0  0  0  0  0  0  0  0  0  0  0
  1  3  4  0
  1 24  4  0
  2  6  4  0
  2 15  4  0
  3  5  4  0
  3  6  4  0
  4 21  4  0
  4 29  4  0
  5 15  4  0
  5 28  1  0
  6 16  4  0
  7 18  4  0
  7 26  4  0
  8 18  1  0
  8 19  4  0
  8 22  4  0
  9 12  4  0
  9 19  4  0
 10 12  4  0
 10 22  4  0
 11 20  4  0
 11 21  4  0
 12 23  1  0
 13 20  4  0
 13 29  4  0
 14 17  4  0
 14 28  4  0
 15 25  2  0
 16 27  4  0
 17 18  4  0
 20 27  1  0
 24 27  4  0
 26 28  4  0
M  END
$$$$

 Created by Python create_sdf_string function

 29 33  0  0  0  0  0  0  0  0999 V2000
    8.8270   -7.0288   18.4251 C   0  0  0  0  0  0  0  0  0  0  0  0
    9.1576   -4.6236   15.8860 O   0  0  0  0  0  0  0  0  0  0  0  0
    9.1509   -5.9108   17.7177 C   0  0  0  0  0  0  0  0  0  0  0  0
    3.6373   -9.5349   16.0582 N   0  0  0  0  0  0  0  0  0  0  0  0
    9.9275   -4.8001   18.0438 N   0  0  0  0  0  0  0  0  0  0  0  0
    8.5908   -5.7425   16.4412 C   0  0  0  0  0  0  0  0  0  0  0  0
   10.5993   -4.8981   21.6068 C   0  0  0  0  0  0  0  0  0  0  0  0
   10.4258   -3.0106   23.0998 C   0  0  0  0  0  0  0  0  0  0  0  0
   10.2148   -3.4364   25.4200 C   0  0  0  0  0  0  0  0  0  0  0  0
    9.7853   -1.1840   24.4927 C   0  0  0  0  0  0  0  0  0  0  0  0
    5.0276   -8.5227   17.5352 C   0  0  0  0  0  0  0  0  0  0  0  0
    9.8187   -2.0895   25.5800 C   0  0  0  0  0  0  0  0  0  0  0  0
    5.6473   -8.7216   15.3158 C   0  0  0  0  0  0  0  0  0  0  0  0
   10.7581   -3.1233   19.4720 N   0  0  0  0  0  0  0  0  0  0  0  0
    9.9571   -4.0573   16.8866 C   0  0  0  0  0  0  0  0  0  0  0  0
    7.6213   -6.5618   16.0087 C   0  0  0  0  0  0  0  0  0  0  0  0
   10.8583   -2.6527   20.7222 C   0  0  0  0  0  0  0  0  0  0  0  0
   10.6412   -3.5089   21.7936 C   0  0  0  0  0  0  0  0  0  0  0  0
   10.4972   -3.8968   24.1589 C   0  0  0  0  0  0  0  0  0  0  0  0
    5.9260   -8.2736   16.5517 C   0  0  0  0  0  0  0  0  0  0  0  0
    3.8816   -9.1166   17.2493 C   0  0  0  0  0  0  0  0  0  0  0  0
   10.1297   -1.6575   23.2324 C   0  0  0  0  0  0  0  0  0  0  0  0
    9.4684   -1.6929   26.7263 F   0  0  0  0  0  0  0  0  0  0  0  0
    7.7963   -7.7906   17.9837 C   0  0  0  0  0  0  0  0  0  0  0  0
   10.5884   -3.0725   16.7902 O   0  0  0  0  0  0  0  0  0  0  0  0
   10.4323   -5.3494   20.3516 C   0  0  0  0  0  0  0  0  0  0  0  0
    7.1156   -7.5454   16.8218 C   0  0  0  0  0  0  0  0  0  0  0  0
   10.3885   -4.4388   19.2773 C   0  0  0  0  0  0  0  0  0  0  0  0
    4.5160   -9.3822   15.0841 C   0  0  0  0  0  0  0  0  0  0  0  0
  1  3  4  0
  1 24  4  0
  2  6  4  0
  2 15  4  0
  3  5  4  0
  3  6  4  0
  4 21  4  0
  4 29  4  0
  5 15  4  0
  5 28  1  0
  6 16  4  0
  7 18  4  0
  7 26  4  0
  8 18  1  0
  8 19  4  0
  8 22  4  0
  9 12  4  0
  9 19  4  0
 10 12  4  0
 10 22  4  0
 11 20  4  0
 11 21  4  0
 12 23  1  0
 13 20  4  0
 13 29  4  0
 14 17  4  0
 14 28  4  0
 15 25  2  0
 16 27  4  0
 17 18  4  0
 20 27  1  0
 24 27  4  0
 26 28  4  0
M  END
$$$$

 Created by Python create_sdf_string function

 29 33  0  0  0  0  0  0  0  0999 V2000
    8.8270   -7.0288   18.4251 C   0  0  0  0  0  0  0  0  0  0  0  0
    9.1576   -4.6236   15.8860 O   0  0  0  0  0  0  0  0  0  0  0  0
    9.1509   -5.9108   17.7177 C   0  0  0  0  0  0  0  0  0  0  0  0
    3.6373   -9.5349   16.0582 N   0  0  0  0  0  0  0  0  0  0  0  0
    9.9275   -4.8001   18.0438 N   0  0  0  0  0  0  0  0  0  0  0  0
    8.5908   -5.7425   16.4412 C   0  0  0  0  0  0  0  0  0  0  0  0
   10.5993   -4.8981   21.6068 C   0  0  0  0  0  0  0  0  0  0  0  0
   10.4258   -3.0106   23.0998 C   0  0  0  0  0  0  0  0  0  0  0  0
   10.2148   -3.4364   25.4200 C   0  0  0  0  0  0  0  0  0  0  0  0
    9.7853   -1.1840   24.4927 C   0  0  0  0  0  0  0  0  0  0  0  0
    5.0276   -8.5227   17.5352 C   0  0  0  0  0  0  0  0  0  0  0  0
    9.8187   -2.0895   25.5800 C   0  0  0  0  0  0  0  0  0  0  0  0
    5.6473   -8.7216   15.3158 C   0  0  0  0  0  0  0  0  0  0  0  0
   10.7581   -3.1233   19.4720 N   0  0  0  0  0  0  0  0  0  0  0  0
    9.9571   -4.0573   16.8866 C   0  0  0  0  0  0  0  0  0  0  0  0
    7.6213   -6.5618   16.0087 C   0  0  0  0  0  0  0  0  0  0  0  0
   10.8583   -2.6527   20.7222 C   0  0  0  0  0  0  0  0  0  0  0  0
   10.6412   -3.5089   21.7936 C   0  0  0  0  0  0  0  0  0  0  0  0
   10.4972   -3.8968   24.1589 C   0  0  0  0  0  0  0  0  0  0  0  0
    5.9260   -8.2736   16.5517 C   0  0  0  0  0  0  0  0  0  0  0  0
    3.8816   -9.1166   17.2493 C   0  0  0  0  0  0  0  0  0  0  0  0
   10.1297   -1.6575   23.2324 C   0  0  0  0  0  0  0  0  0  0  0  0
    9.4684   -1.6929   26.7263 F   0  0  0  0  0  0  0  0  0  0  0  0
    7.7963   -7.7906   17.9837 C   0  0  0  0  0  0  0  0  0  0  0  0
   10.5884   -3.0725   16.7902 O   0  0  0  0  0  0  0  0  0  0  0  0
   10.4323   -5.3494   20.3516 C   0  0  0  0  0  0  0  0  0  0  0  0
    7.1156   -7.5454   16.8218 C   0  0  0  0  0  0  0  0  0  0  0  0
   10.3885   -4.4388   19.2773 C   0  0  0  0  0  0  0  0  0  0  0  0
    4.5160   -9.3822   15.0841 C   0  0  0  0  0  0  0  0  0  0  0  0
  1  3  4  0
  1 24  4  0
  2  6  4  0
  2 15  4  0
  3  5  4  0
  3  6  4  0
  4 21  4  0
  4 29  4  0
  5 15  4  0
  5 28  1  0
  6 16  4  0
  7 18  4  0
  7 26  4  0
  8 18  1  0
  8 19  4  0
  8 22  4  0
  9 12  4  0
  9 19  4  0
 10 12  4  0
 10 22  4  0
 11 20  4  0
 11 21  4  0
 12 23  1  0
 13 20  4  0
 13 29  4  0
 14 17  4  0
 14 28  4  0
 15 25  2  0
 16 27  4  0
 17 18  4  0
 20 27  1  0
 24 27  4  0
 26 28  4  0
M  END
$$$$

 Created by Python create_sdf_string function

 29 33  0  0  0  0  0  0  0  0999 V2000
    8.8270   -7.0288   18.4251 C   0  0  0  0  0  0  0  0  0  0  0  0
    9.1576   -4.6236   15.8860 O   0  0  0  0  0  0  0  0  0  0  0  0
    9.1509   -5.9108   17.7177 C   0  0  0  0  0  0  0  0  0  0  0  0
    3.6373   -9.5349   16.0582 N   0  0  0  0  0  0  0  0  0  0  0  0
    9.9275   -4.8001   18.0438 N   0  0  0  0  0  0  0  0  0  0  0  0
    8.5908   -5.7425   16.4412 C   0  0  0  0  0  0  0  0  0  0  0  0
   10.5993   -4.8981   21.6068 C   0  0  0  0  0  0  0  0  0  0  0  0
   10.4258   -3.0106   23.0998 C   0  0  0  0  0  0  0  0  0  0  0  0
   10.2148   -3.4364   25.4200 C   0  0  0  0  0  0  0  0  0  0  0  0
    9.7853   -1.1840   24.4927 C   0  0  0  0  0  0  0  0  0  0  0  0
    5.0276   -8.5227   17.5352 C   0  0  0  0  0  0  0  0  0  0  0  0
    9.8187   -2.0895   25.5800 C   0  0  0  0  0  0  0  0  0  0  0  0
    5.6473   -8.7216   15.3158 C   0  0  0  0  0  0  0  0  0  0  0  0
   10.7581   -3.1233   19.4720 N   0  0  0  0  0  0  0  0  0  0  0  0
    9.9571   -4.0573   16.8866 C   0  0  0  0  0  0  0  0  0  0  0  0
    7.6213   -6.5618   16.0087 C   0  0  0  0  0  0  0  0  0  0  0  0
   10.8583   -2.6527   20.7222 C   0  0  0  0  0  0  0  0  0  0  0  0
   10.6412   -3.5089   21.7936 C   0  0  0  0  0  0  0  0  0  0  0  0
   10.4972   -3.8968   24.1589 C   0  0  0  0  0  0  0  0  0  0  0  0
    5.9260   -8.2736   16.5517 C   0  0  0  0  0  0  0  0  0  0  0  0
    3.8816   -9.1166   17.2493 C   0  0  0  0  0  0  0  0  0  0  0  0
   10.1297   -1.6575   23.2324 C   0  0  0  0  0  0  0  0  0  0  0  0
    9.4684   -1.6929   26.7263 F   0  0  0  0  0  0  0  0  0  0  0  0
    7.7963   -7.7906   17.9837 C   0  0  0  0  0  0  0  0  0  0  0  0
   10.5884   -3.0725   16.7902 O   0  0  0  0  0  0  0  0  0  0  0  0
   10.4323   -5.3494   20.3516 C   0  0  0  0  0  0  0  0  0  0  0  0
    7.1156   -7.5454   16.8218 C   0  0  0  0  0  0  0  0  0  0  0  0
   10.3885   -4.4388   19.2773 C   0  0  0  0  0  0  0  0  0  0  0  0
    4.5160   -9.3822   15.0841 C   0  0  0  0  0  0  0  0  0  0  0  0
  1  3  4  0
  1 24  4  0
  2  6  4  0
  2 15  4  0
  3  5  4  0
  3  6  4  0
  4 21  4  0
  4 29  4  0
  5 15  4  0
  5 28  1  0
  6 16  4  0
  7 18  4  0
  7 26  4  0
  8 18  1  0
  8 19  4  0
  8 22  4  0
  9 12  4  0
  9 19  4  0
 10 12  4  0
 10 22  4  0
 11 20  4  0
 11 21  4  0
 12 23  1  0
 13 20  4  0
 13 29  4  0
 14 17  4  0
 14 28  4  0
 15 25  2  0
 16 27  4  0
 17 18  4  0
 20 27  1  0
 24 27  4  0
 26 28  4  0
M  END
$$$$

 Created by Python create_sdf_string function

 29 33  0  0  0  0  0  0  0  0999 V2000
    8.8270   -7.0288   18.4251 C   0  0  0  0  0  0  0  0  0  0  0  0
    9.1576   -4.6236   15.8860 O   0  0  0  0  0  0  0  0  0  0  0  0
    9.1509   -5.9108   17.7177 C   0  0  0  0  0  0  0  0  0  0  0  0
    3.6373   -9.5349   16.0582 N   0  0  0  0  0  0  0  0  0  0  0  0
    9.9275   -4.8001   18.0438 N   0  0  0  0  0  0  0  0  0  0  0  0
    8.5908   -5.7425   16.4412 C   0  0  0  0  0  0  0  0  0  0  0  0
   10.5993   -4.8981   21.6068 C   0  0  0  0  0  0  0  0  0  0  0  0
   10.4258   -3.0106   23.0998 C   0  0  0  0  0  0  0  0  0  0  0  0
   10.2148   -3.4364   25.4200 C   0  0  0  0  0  0  0  0  0  0  0  0
    9.7853   -1.1840   24.4927 C   0  0  0  0  0  0  0  0  0  0  0  0
    5.0276   -8.5227   17.5352 C   0  0  0  0  0  0  0  0  0  0  0  0
    9.8187   -2.0895   25.5800 C   0  0  0  0  0  0  0  0  0  0  0  0
    5.6473   -8.7216   15.3158 C   0  0  0  0  0  0  0  0  0  0  0  0
   10.7581   -3.1233   19.4720 N   0  0  0  0  0  0  0  0  0  0  0  0
    9.9571   -4.0573   16.8866 C   0  0  0  0  0  0  0  0  0  0  0  0
    7.6213   -6.5618   16.0087 C   0  0  0  0  0  0  0  0  0  0  0  0
   10.8583   -2.6527   20.7222 C   0  0  0  0  0  0  0  0  0  0  0  0
   10.6412   -3.5089   21.7936 C   0  0  0  0  0  0  0  0  0  0  0  0
   10.4972   -3.8968   24.1589 C   0  0  0  0  0  0  0  0  0  0  0  0
    5.9260   -8.2736   16.5517 C   0  0  0  0  0  0  0  0  0  0  0  0
    3.8816   -9.1166   17.2493 C   0  0  0  0  0  0  0  0  0  0  0  0
   10.1297   -1.6575   23.2324 C   0  0  0  0  0  0  0  0  0  0  0  0
    9.4684   -1.6929   26.7263 F   0  0  0  0  0  0  0  0  0  0  0  0
    7.7963   -7.7906   17.9837 C   0  0  0  0  0  0  0  0  0  0  0  0
   10.5884   -3.0725   16.7902 O   0  0  0  0  0  0  0  0  0  0  0  0
   10.4323   -5.3494   20.3516 C   0  0  0  0  0  0  0  0  0  0  0  0
    7.1156   -7.5454   16.8218 C   0  0  0  0  0  0  0  0  0  0  0  0
   10.3885   -4.4388   19.2773 C   0  0  0  0  0  0  0  0  0  0  0  0
    4.5160   -9.3822   15.0841 C   0  0  0  0  0  0  0  0  0  0  0  0
  1  3  4  0
  1 24  4  0
  2  6  4  0
  2 15  4  0
  3  5  4  0
  3  6  4  0
  4 21  4  0
  4 29  4  0
  5 15  4  0
  5 28  1  0
  6 16  4  0
  7 18  4  0
  7 26  4  0
  8 18  1  0
  8 19  4  0
  8 22  4  0
  9 12  4  0
  9 19  4  0
 10 12  4  0
 10 22  4  0
 11 20  4  0
 11 21  4  0
 12 23  1  0
 13 20  4  0
 13 29  4  0
 14 17  4  0
 14 28  4  0
 15 25  2  0
 16 27  4  0
 17 18  4  0
 20 27  1  0
 24 27  4  0
 26 28  4  0
M  END
$$$$

 Created by Python create_sdf_string function

 29 33  0  0  0  0  0  0  0  0999 V2000
    8.8270   -7.0288   18.4251 C   0  0  0  0  0  0  0  0  0  0  0  0
    9.1576   -4.6236   15.8860 O   0  0  0  0  0  0  0  0  0  0  0  0
    9.1509   -5.9108   17.7177 C   0  0  0  0  0  0  0  0  0  0  0  0
    3.6373   -9.5349   16.0582 N   0  0  0  0  0  0  0  0  0  0  0  0
    9.9275   -4.8001   18.0438 N   0  0  0  0  0  0  0  0  0  0  0  0
    8.5908   -5.7425   16.4412 C   0  0  0  0  0  0  0  0  0  0  0  0
   10.5993   -4.8981   21.6068 C   0  0  0  0  0  0  0  0  0  0  0  0
   10.4258   -3.0106   23.0998 C   0  0  0  0  0  0  0  0  0  0  0  0
   10.2148   -3.4364   25.4200 C   0  0  0  0  0  0  0  0  0  0  0  0
    9.7853   -1.1840   24.4927 C   0  0  0  0  0  0  0  0  0  0  0  0
    5.0276   -8.5227   17.5352 C   0  0  0  0  0  0  0  0  0  0  0  0
    9.8187   -2.0895   25.5800 C   0  0  0  0  0  0  0  0  0  0  0  0
    5.6473   -8.7216   15.3158 C   0  0  0  0  0  0  0  0  0  0  0  0
   10.7581   -3.1233   19.4720 N   0  0  0  0  0  0  0  0  0  0  0  0
    9.9571   -4.0573   16.8866 C   0  0  0  0  0  0  0  0  0  0  0  0
    7.6213   -6.5618   16.0087 C   0  0  0  0  0  0  0  0  0  0  0  0
   10.8583   -2.6527   20.7222 C   0  0  0  0  0  0  0  0  0  0  0  0
   10.6412   -3.5089   21.7936 C   0  0  0  0  0  0  0  0  0  0  0  0
   10.4972   -3.8968   24.1589 C   0  0  0  0  0  0  0  0  0  0  0  0
    5.9260   -8.2736   16.5517 C   0  0  0  0  0  0  0  0  0  0  0  0
    3.8816   -9.1166   17.2493 C   0  0  0  0  0  0  0  0  0  0  0  0
   10.1297   -1.6575   23.2324 C   0  0  0  0  0  0  0  0  0  0  0  0
    9.4684   -1.6929   26.7263 F   0  0  0  0  0  0  0  0  0  0  0  0
    7.7963   -7.7906   17.9837 C   0  0  0  0  0  0  0  0  0  0  0  0
   10.5884   -3.0725   16.7902 O   0  0  0  0  0  0  0  0  0  0  0  0
   10.4323   -5.3494   20.3516 C   0  0  0  0  0  0  0  0  0  0  0  0
    7.1156   -7.5454   16.8218 C   0  0  0  0  0  0  0  0  0  0  0  0
   10.3885   -4.4388   19.2773 C   0  0  0  0  0  0  0  0  0  0  0  0
    4.5160   -9.3822   15.0841 C   0  0  0  0  0  0  0  0  0  0  0  0
  1  3  4  0
  1 24  4  0
  2  6  4  0
  2 15  4  0
  3  5  4  0
  3  6  4  0
  4 21  4  0
  4 29  4  0
  5 15  4  0
  5 28  1  0
  6 16  4  0
  7 18  4  0
  7 26  4  0
  8 18  1  0
  8 19  4  0
  8 22  4  0
  9 12  4  0
  9 19  4  0
 10 12  4  0
 10 22  4  0
 11 20  4  0
 11 21  4  0
 12 23  1  0
 13 20  4  0
 13 29  4  0
 14 17  4  0
 14 28  4  0
 15 25  2  0
 16 27  4  0
 17 18  4  0
 20 27  1  0
 24 27  4  0
 26 28  4  0
M  END
$$$$

 Created by Python create_sdf_string function

 29 33  0  0  0  0  0  0  0  0999 V2000
    8.8270   -7.0288   18.4251 C   0  0  0  0  0  0  0  0  0  0  0  0
    9.1576   -4.6236   15.8860 O   0  0  0  0  0  0  0  0  0  0  0  0
    9.1509   -5.9108   17.7177 C   0  0  0  0  0  0  0  0  0  0  0  0
    3.6373   -9.5349   16.0582 N   0  0  0  0  0  0  0  0  0  0  0  0
    9.9275   -4.8001   18.0438 N   0  0  0  0  0  0  0  0  0  0  0  0
    8.5908   -5.7425   16.4412 C   0  0  0  0  0  0  0  0  0  0  0  0
   10.5993   -4.8981   21.6068 C   0  0  0  0  0  0  0  0  0  0  0  0
   10.4258   -3.0106   23.0998 C   0  0  0  0  0  0  0  0  0  0  0  0
   10.2148   -3.4364   25.4200 C   0  0  0  0  0  0  0  0  0  0  0  0
    9.7853   -1.1840   24.4927 C   0  0  0  0  0  0  0  0  0  0  0  0
    5.0276   -8.5227   17.5352 C   0  0  0  0  0  0  0  0  0  0  0  0
    9.8187   -2.0895   25.5800 C   0  0  0  0  0  0  0  0  0  0  0  0
    5.6473   -8.7216   15.3158 C   0  0  0  0  0  0  0  0  0  0  0  0
   10.7581   -3.1233   19.4720 N   0  0  0  0  0  0  0  0  0  0  0  0
    9.9571   -4.0573   16.8866 C   0  0  0  0  0  0  0  0  0  0  0  0
    7.6213   -6.5618   16.0087 C   0  0  0  0  0  0  0  0  0  0  0  0
   10.8583   -2.6527   20.7222 C   0  0  0  0  0  0  0  0  0  0  0  0
   10.6412   -3.5089   21.7936 C   0  0  0  0  0  0  0  0  0  0  0  0
   10.4972   -3.8968   24.1589 C   0  0  0  0  0  0  0  0  0  0  0  0
    5.9260   -8.2736   16.5517 C   0  0  0  0  0  0  0  0  0  0  0  0
    3.8816   -9.1166   17.2493 C   0  0  0  0  0  0  0  0  0  0  0  0
   10.1297   -1.6575   23.2324 C   0  0  0  0  0  0  0  0  0  0  0  0
    9.4684   -1.6929   26.7263 F   0  0  0  0  0  0  0  0  0  0  0  0
    7.7963   -7.7906   17.9837 C   0  0  0  0  0  0  0  0  0  0  0  0
   10.5884   -3.0725   16.7902 O   0  0  0  0  0  0  0  0  0  0  0  0
   10.4323   -5.3494   20.3516 C   0  0  0  0  0  0  0  0  0  0  0  0
    7.1156   -7.5454   16.8218 C   0  0  0  0  0  0  0  0  0  0  0  0
   10.3885   -4.4388   19.2773 C   0  0  0  0  0  0  0  0  0  0  0  0
    4.5160   -9.3822   15.0841 C   0  0  0  0  0  0  0  0  0  0  0  0
  1  3  4  0
  1 24  4  0
  2  6  4  0
  2 15  4  0
  3  5  4  0
  3  6  4  0
  4 21  4  0
  4 29  4  0
  5 15  4  0
  5 28  1  0
  6 16  4  0
  7 18  4  0
  7 26  4  0
  8 18  1  0
  8 19  4  0
  8 22  4  0
  9 12  4  0
  9 19  4  0
 10 12  4  0
 10 22  4  0
 11 20  4  0
 11 21  4  0
 12 23  1  0
 13 20  4  0
 13 29  4  0
 14 17  4  0
 14 28  4  0
 15 25  2  0
 16 27  4  0
 17 18  4  0
 20 27  1  0
 24 27  4  0
 26 28  4  0
M  END
$$$$

 Created by Python create_sdf_string function

 29 33  0  0  0  0  0  0  0  0999 V2000
    8.8270   -7.0288   18.4251 C   0  0  0  0  0  0  0  0  0  0  0  0
    9.1576   -4.6236   15.8860 O   0  0  0  0  0  0  0  0  0  0  0  0
    9.1509   -5.9108   17.7177 C   0  0  0  0  0  0  0  0  0  0  0  0
    3.6373   -9.5349   16.0582 N   0  0  0  0  0  0  0  0  0  0  0  0
    9.9275   -4.8001   18.0438 N   0  0  0  0  0  0  0  0  0  0  0  0
    8.5908   -5.7425   16.4412 C   0  0  0  0  0  0  0  0  0  0  0  0
   10.5993   -4.8981   21.6068 C   0  0  0  0  0  0  0  0  0  0  0  0
   10.4258   -3.0106   23.0998 C   0  0  0  0  0  0  0  0  0  0  0  0
   10.2148   -3.4364   25.4200 C   0  0  0  0  0  0  0  0  0  0  0  0
    9.7853   -1.1840   24.4927 C   0  0  0  0  0  0  0  0  0  0  0  0
    5.0276   -8.5227   17.5352 C   0  0  0  0  0  0  0  0  0  0  0  0
    9.8187   -2.0895   25.5800 C   0  0  0  0  0  0  0  0  0  0  0  0
    5.6473   -8.7216   15.3158 C   0  0  0  0  0  0  0  0  0  0  0  0
   10.7581   -3.1233   19.4720 N   0  0  0  0  0  0  0  0  0  0  0  0
    9.9571   -4.0573   16.8866 C   0  0  0  0  0  0  0  0  0  0  0  0
    7.6213   -6.5618   16.0087 C   0  0  0  0  0  0  0  0  0  0  0  0
   10.8583   -2.6527   20.7222 C   0  0  0  0  0  0  0  0  0  0  0  0
   10.6412   -3.5089   21.7936 C   0  0  0  0  0  0  0  0  0  0  0  0
   10.4972   -3.8968   24.1589 C   0  0  0  0  0  0  0  0  0  0  0  0
    5.9260   -8.2736   16.5517 C   0  0  0  0  0  0  0  0  0  0  0  0
    3.8816   -9.1166   17.2493 C   0  0  0  0  0  0  0  0  0  0  0  0
   10.1297   -1.6575   23.2324 C   0  0  0  0  0  0  0  0  0  0  0  0
    9.4684   -1.6929   26.7263 F   0  0  0  0  0  0  0  0  0  0  0  0
    7.7963   -7.7906   17.9837 C   0  0  0  0  0  0  0  0  0  0  0  0
   10.5884   -3.0725   16.7902 O   0  0  0  0  0  0  0  0  0  0  0  0
   10.4323   -5.3494   20.3516 C   0  0  0  0  0  0  0  0  0  0  0  0
    7.1156   -7.5454   16.8218 C   0  0  0  0  0  0  0  0  0  0  0  0
   10.3885   -4.4388   19.2773 C   0  0  0  0  0  0  0  0  0  0  0  0
    4.5160   -9.3822   15.0841 C   0  0  0  0  0  0  0  0  0  0  0  0
  1  3  4  0
  1 24  4  0
  2  6  4  0
  2 15  4  0
  3  5  4  0
  3  6  4  0
  4 21  4  0
  4 29  4  0
  5 15  4  0
  5 28  1  0
  6 16  4  0
  7 18  4  0
  7 26  4  0
  8 18  1  0
  8 19  4  0
  8 22  4  0
  9 12  4  0
  9 19  4  0
 10 12  4  0
 10 22  4  0
 11 20  4  0
 11 21  4  0
 12 23  1  0
 13 20  4  0
 13 29  4  0
 14 17  4  0
 14 28  4  0
 15 25  2  0
 16 27  4  0
 17 18  4  0
 20 27  1  0
 24 27  4  0
 26 28  4  0
M  END
$$$$

 Created by Python create_sdf_string function

 29 33  0  0  0  0  0  0  0  0999 V2000
    8.8270   -7.0288   18.4251 C   0  0  0  0  0  0  0  0  0  0  0  0
    9.1576   -4.6236   15.8860 O   0  0  0  0  0  0  0  0  0  0  0  0
    9.1509   -5.9108   17.7177 C   0  0  0  0  0  0  0  0  0  0  0  0
    3.6373   -9.5349   16.0582 N   0  0  0  0  0  0  0  0  0  0  0  0
    9.9275   -4.8001   18.0438 N   0  0  0  0  0  0  0  0  0  0  0  0
    8.5908   -5.7425   16.4412 C   0  0  0  0  0  0  0  0  0  0  0  0
   10.5993   -4.8981   21.6068 C   0  0  0  0  0  0  0  0  0  0  0  0
   10.4258   -3.0106   23.0998 C   0  0  0  0  0  0  0  0  0  0  0  0
   10.2148   -3.4364   25.4200 C   0  0  0  0  0  0  0  0  0  0  0  0
    9.7853   -1.1840   24.4927 C   0  0  0  0  0  0  0  0  0  0  0  0
    5.0276   -8.5227   17.5352 C   0  0  0  0  0  0  0  0  0  0  0  0
    9.8187   -2.0895   25.5800 C   0  0  0  0  0  0  0  0  0  0  0  0
    5.6473   -8.7216   15.3158 C   0  0  0  0  0  0  0  0  0  0  0  0
   10.7581   -3.1233   19.4720 N   0  0  0  0  0  0  0  0  0  0  0  0
    9.9571   -4.0573   16.8866 C   0  0  0  0  0  0  0  0  0  0  0  0
    7.6213   -6.5618   16.0087 C   0  0  0  0  0  0  0  0  0  0  0  0
   10.8583   -2.6527   20.7222 C   0  0  0  0  0  0  0  0  0  0  0  0
   10.6412   -3.5089   21.7936 C   0  0  0  0  0  0  0  0  0  0  0  0
   10.4972   -3.8968   24.1589 C   0  0  0  0  0  0  0  0  0  0  0  0
    5.9260   -8.2736   16.5517 C   0  0  0  0  0  0  0  0  0  0  0  0
    3.8816   -9.1166   17.2493 C   0  0  0  0  0  0  0  0  0  0  0  0
   10.1297   -1.6575   23.2324 C   0  0  0  0  0  0  0  0  0  0  0  0
    9.4684   -1.6929   26.7263 F   0  0  0  0  0  0  0  0  0  0  0  0
    7.7963   -7.7906   17.9837 C   0  0  0  0  0  0  0  0  0  0  0  0
   10.5884   -3.0725   16.7902 O   0  0  0  0  0  0  0  0  0  0  0  0
   10.4323   -5.3494   20.3516 C   0  0  0  0  0  0  0  0  0  0  0  0
    7.1156   -7.5454   16.8218 C   0  0  0  0  0  0  0  0  0  0  0  0
   10.3885   -4.4388   19.2773 C   0  0  0  0  0  0  0  0  0  0  0  0
    4.5160   -9.3822   15.0841 C   0  0  0  0  0  0  0  0  0  0  0  0
  1  3  4  0
  1 24  4  0
  2  6  4  0
  2 15  4  0
  3  5  4  0
  3  6  4  0
  4 21  4  0
  4 29  4  0
  5 15  4  0
  5 28  1  0
  6 16  4  0
  7 18  4  0
  7 26  4  0
  8 18  1  0
  8 19  4  0
  8 22  4  0
  9 12  4  0
  9 19  4  0
 10 12  4  0
 10 22  4  0
 11 20  4  0
 11 21  4  0
 12 23  1  0
 13 20  4  0
 13 29  4  0
 14 17  4  0
 14 28  4  0
 15 25  2  0
 16 27  4  0
 17 18  4  0
 20 27  1  0
 24 27  4  0
 26 28  4  0
M  END
$$$$

 Created by Python create_sdf_string function

 29 33  0  0  0  0  0  0  0  0999 V2000
    8.8270   -7.0288   18.4251 C   0  0  0  0  0  0  0  0  0  0  0  0
    9.1576   -4.6236   15.8860 O   0  0  0  0  0  0  0  0  0  0  0  0
    9.1509   -5.9108   17.7177 C   0  0  0  0  0  0  0  0  0  0  0  0
    3.6373   -9.5349   16.0582 N   0  0  0  0  0  0  0  0  0  0  0  0
    9.9275   -4.8001   18.0438 N   0  0  0  0  0  0  0  0  0  0  0  0
    8.5908   -5.7425   16.4412 C   0  0  0  0  0  0  0  0  0  0  0  0
   10.5993   -4.8981   21.6068 C   0  0  0  0  0  0  0  0  0  0  0  0
   10.4258   -3.0106   23.0998 C   0  0  0  0  0  0  0  0  0  0  0  0
   10.2148   -3.4364   25.4200 C   0  0  0  0  0  0  0  0  0  0  0  0
    9.7853   -1.1840   24.4927 C   0  0  0  0  0  0  0  0  0  0  0  0
    5.0276   -8.5227   17.5352 C   0  0  0  0  0  0  0  0  0  0  0  0
    9.8187   -2.0895   25.5800 C   0  0  0  0  0  0  0  0  0  0  0  0
    5.6473   -8.7216   15.3158 C   0  0  0  0  0  0  0  0  0  0  0  0
   10.7581   -3.1233   19.4720 N   0  0  0  0  0  0  0  0  0  0  0  0
    9.9571   -4.0573   16.8866 C   0  0  0  0  0  0  0  0  0  0  0  0
    7.6213   -6.5618   16.0087 C   0  0  0  0  0  0  0  0  0  0  0  0
   10.8583   -2.6527   20.7222 C   0  0  0  0  0  0  0  0  0  0  0  0
   10.6412   -3.5089   21.7936 C   0  0  0  0  0  0  0  0  0  0  0  0
   10.4972   -3.8968   24.1589 C   0  0  0  0  0  0  0  0  0  0  0  0
    5.9260   -8.2736   16.5517 C   0  0  0  0  0  0  0  0  0  0  0  0
    3.8816   -9.1166   17.2493 C   0  0  0  0  0  0  0  0  0  0  0  0
   10.1297   -1.6575   23.2324 C   0  0  0  0  0  0  0  0  0  0  0  0
    9.4684   -1.6929   26.7263 F   0  0  0  0  0  0  0  0  0  0  0  0
    7.7963   -7.7906   17.9837 C   0  0  0  0  0  0  0  0  0  0  0  0
   10.5884   -3.0725   16.7902 O   0  0  0  0  0  0  0  0  0  0  0  0
   10.4323   -5.3494   20.3516 C   0  0  0  0  0  0  0  0  0  0  0  0
    7.1156   -7.5454   16.8218 C   0  0  0  0  0  0  0  0  0  0  0  0
   10.3885   -4.4388   19.2773 C   0  0  0  0  0  0  0  0  0  0  0  0
    4.5160   -9.3822   15.0841 C   0  0  0  0  0  0  0  0  0  0  0  0
  1  3  4  0
  1 24  4  0
  2  6  4  0
  2 15  4  0
  3  5  4  0
  3  6  4  0
  4 21  4  0
  4 29  4  0
  5 15  4  0
  5 28  1  0
  6 16  4  0
  7 18  4  0
  7 26  4  0
  8 18  1  0
  8 19  4  0
  8 22  4  0
  9 12  4  0
  9 19  4  0
 10 12  4  0
 10 22  4  0
 11 20  4  0
 11 21  4  0
 12 23  1  0
 13 20  4  0
 13 29  4  0
 14 17  4  0
 14 28  4  0
 15 25  2  0
 16 27  4  0
 17 18  4  0
 20 27  1  0
 24 27  4  0
 26 28  4  0
M  END
$$$$

 Created by Python create_sdf_string function

 29 33  0  0  0  0  0  0  0  0999 V2000
    8.8270   -7.0288   18.4251 C   0  0  0  0  0  0  0  0  0  0  0  0
    9.1576   -4.6236   15.8860 O   0  0  0  0  0  0  0  0  0  0  0  0
    9.1509   -5.9108   17.7177 C   0  0  0  0  0  0  0  0  0  0  0  0
    3.6373   -9.5349   16.0582 N   0  0  0  0  0  0  0  0  0  0  0  0
    9.9275   -4.8001   18.0438 N   0  0  0  0  0  0  0  0  0  0  0  0
    8.5908   -5.7425   16.4412 C   0  0  0  0  0  0  0  0  0  0  0  0
   10.5993   -4.8981   21.6068 C   0  0  0  0  0  0  0  0  0  0  0  0
   10.4258   -3.0106   23.0998 C   0  0  0  0  0  0  0  0  0  0  0  0
   10.2148   -3.4364   25.4200 C   0  0  0  0  0  0  0  0  0  0  0  0
    9.7853   -1.1840   24.4927 C   0  0  0  0  0  0  0  0  0  0  0  0
    5.0276   -8.5227   17.5352 C   0  0  0  0  0  0  0  0  0  0  0  0
    9.8187   -2.0895   25.5800 C   0  0  0  0  0  0  0  0  0  0  0  0
    5.6473   -8.7216   15.3158 C   0  0  0  0  0  0  0  0  0  0  0  0
   10.7581   -3.1233   19.4720 N   0  0  0  0  0  0  0  0  0  0  0  0
    9.9571   -4.0573   16.8866 C   0  0  0  0  0  0  0  0  0  0  0  0
    7.6213   -6.5618   16.0087 C   0  0  0  0  0  0  0  0  0  0  0  0
   10.8583   -2.6527   20.7222 C   0  0  0  0  0  0  0  0  0  0  0  0
   10.6412   -3.5089   21.7936 C   0  0  0  0  0  0  0  0  0  0  0  0
   10.4972   -3.8968   24.1589 C   0  0  0  0  0  0  0  0  0  0  0  0
    5.9260   -8.2736   16.5517 C   0  0  0  0  0  0  0  0  0  0  0  0
    3.8816   -9.1166   17.2493 C   0  0  0  0  0  0  0  0  0  0  0  0
   10.1297   -1.6575   23.2324 C   0  0  0  0  0  0  0  0  0  0  0  0
    9.4684   -1.6929   26.7263 F   0  0  0  0  0  0  0  0  0  0  0  0
    7.7963   -7.7906   17.9837 C   0  0  0  0  0  0  0  0  0  0  0  0
   10.5884   -3.0725   16.7902 O   0  0  0  0  0  0  0  0  0  0  0  0
   10.4323   -5.3494   20.3516 C   0  0  0  0  0  0  0  0  0  0  0  0
    7.1156   -7.5454   16.8218 C   0  0  0  0  0  0  0  0  0  0  0  0
   10.3885   -4.4388   19.2773 C   0  0  0  0  0  0  0  0  0  0  0  0
    4.5160   -9.3822   15.0841 C   0  0  0  0  0  0  0  0  0  0  0  0
  1  3  4  0
  1 24  4  0
  2  6  4  0
  2 15  4  0
  3  5  4  0
  3  6  4  0
  4 21  4  0
  4 29  4  0
  5 15  4  0
  5 28  1  0
  6 16  4  0
  7 18  4  0
  7 26  4  0
  8 18  1  0
  8 19  4  0
  8 22  4  0
  9 12  4  0
  9 19  4  0
 10 12  4  0
 10 22  4  0
 11 20  4  0
 11 21  4  0
 12 23  1  0
 13 20  4  0
 13 29  4  0
 14 17  4  0
 14 28  4  0
 15 25  2  0
 16 27  4  0
 17 18  4  0
 20 27  1  0
 24 27  4  0
 26 28  4  0
M  END
$$$$

 Created by Python create_sdf_string function

 29 33  0  0  0  0  0  0  0  0999 V2000
    8.8270   -7.0288   18.4251 C   0  0  0  0  0  0  0  0  0  0  0  0
    9.1576   -4.6236   15.8860 O   0  0  0  0  0  0  0  0  0  0  0  0
    9.1509   -5.9108   17.7177 C   0  0  0  0  0  0  0  0  0  0  0  0
    3.6373   -9.5349   16.0582 N   0  0  0  0  0  0  0  0  0  0  0  0
    9.9275   -4.8001   18.0438 N   0  0  0  0  0  0  0  0  0  0  0  0
    8.5908   -5.7425   16.4412 C   0  0  0  0  0  0  0  0  0  0  0  0
   10.5993   -4.8981   21.6068 C   0  0  0  0  0  0  0  0  0  0  0  0
   10.4258   -3.0106   23.0998 C   0  0  0  0  0  0  0  0  0  0  0  0
   10.2148   -3.4364   25.4200 C   0  0  0  0  0  0  0  0  0  0  0  0
    9.7853   -1.1840   24.4927 C   0  0  0  0  0  0  0  0  0  0  0  0
    5.0276   -8.5227   17.5352 C   0  0  0  0  0  0  0  0  0  0  0  0
    9.8187   -2.0895   25.5800 C   0  0  0  0  0  0  0  0  0  0  0  0
    5.6473   -8.7216   15.3158 C   0  0  0  0  0  0  0  0  0  0  0  0
   10.7581   -3.1233   19.4720 N   0  0  0  0  0  0  0  0  0  0  0  0
    9.9571   -4.0573   16.8866 C   0  0  0  0  0  0  0  0  0  0  0  0
    7.6213   -6.5618   16.0087 C   0  0  0  0  0  0  0  0  0  0  0  0
   10.8583   -2.6527   20.7222 C   0  0  0  0  0  0  0  0  0  0  0  0
   10.6412   -3.5089   21.7936 C   0  0  0  0  0  0  0  0  0  0  0  0
   10.4972   -3.8968   24.1589 C   0  0  0  0  0  0  0  0  0  0  0  0
    5.9260   -8.2736   16.5517 C   0  0  0  0  0  0  0  0  0  0  0  0
    3.8816   -9.1166   17.2493 C   0  0  0  0  0  0  0  0  0  0  0  0
   10.1297   -1.6575   23.2324 C   0  0  0  0  0  0  0  0  0  0  0  0
    9.4684   -1.6929   26.7263 F   0  0  0  0  0  0  0  0  0  0  0  0
    7.7963   -7.7906   17.9837 C   0  0  0  0  0  0  0  0  0  0  0  0
   10.5884   -3.0725   16.7902 O   0  0  0  0  0  0  0  0  0  0  0  0
   10.4323   -5.3494   20.3516 C   0  0  0  0  0  0  0  0  0  0  0  0
    7.1156   -7.5454   16.8218 C   0  0  0  0  0  0  0  0  0  0  0  0
   10.3885   -4.4388   19.2773 C   0  0  0  0  0  0  0  0  0  0  0  0
    4.5160   -9.3822   15.0841 C   0  0  0  0  0  0  0  0  0  0  0  0
  1  3  4  0
  1 24  4  0
  2  6  4  0
  2 15  4  0
  3  5  4  0
  3  6  4  0
  4 21  4  0
  4 29  4  0
  5 15  4  0
  5 28  1  0
  6 16  4  0
  7 18  4  0
  7 26  4  0
  8 18  1  0
  8 19  4  0
  8 22  4  0
  9 12  4  0
  9 19  4  0
 10 12  4  0
 10 22  4  0
 11 20  4  0
 11 21  4  0
 12 23  1  0
 13 20  4  0
 13 29  4  0
 14 17  4  0
 14 28  4  0
 15 25  2  0
 16 27  4  0
 17 18  4  0
 20 27  1  0
 24 27  4  0
 26 28  4  0
M  END
$$$$

 Created by Python create_sdf_string function

 29 33  0  0  0  0  0  0  0  0999 V2000
    8.8270   -7.0288   18.4251 C   0  0  0  0  0  0  0  0  0  0  0  0
    9.1576   -4.6236   15.8860 O   0  0  0  0  0  0  0  0  0  0  0  0
    9.1509   -5.9108   17.7177 C   0  0  0  0  0  0  0  0  0  0  0  0
    3.6373   -9.5349   16.0582 N   0  0  0  0  0  0  0  0  0  0  0  0
    9.9275   -4.8001   18.0438 N   0  0  0  0  0  0  0  0  0  0  0  0
    8.5908   -5.7425   16.4412 C   0  0  0  0  0  0  0  0  0  0  0  0
   10.5993   -4.8981   21.6068 C   0  0  0  0  0  0  0  0  0  0  0  0
   10.4258   -3.0106   23.0998 C   0  0  0  0  0  0  0  0  0  0  0  0
   10.2148   -3.4364   25.4200 C   0  0  0  0  0  0  0  0  0  0  0  0
    9.7853   -1.1840   24.4927 C   0  0  0  0  0  0  0  0  0  0  0  0
    5.0276   -8.5227   17.5352 C   0  0  0  0  0  0  0  0  0  0  0  0
    9.8187   -2.0895   25.5800 C   0  0  0  0  0  0  0  0  0  0  0  0
    5.6473   -8.7216   15.3158 C   0  0  0  0  0  0  0  0  0  0  0  0
   10.7581   -3.1233   19.4720 N   0  0  0  0  0  0  0  0  0  0  0  0
    9.9571   -4.0573   16.8866 C   0  0  0  0  0  0  0  0  0  0  0  0
    7.6213   -6.5618   16.0087 C   0  0  0  0  0  0  0  0  0  0  0  0
   10.8583   -2.6527   20.7222 C   0  0  0  0  0  0  0  0  0  0  0  0
   10.6412   -3.5089   21.7936 C   0  0  0  0  0  0  0  0  0  0  0  0
   10.4972   -3.8968   24.1589 C   0  0  0  0  0  0  0  0  0  0  0  0
    5.9260   -8.2736   16.5517 C   0  0  0  0  0  0  0  0  0  0  0  0
    3.8816   -9.1166   17.2493 C   0  0  0  0  0  0  0  0  0  0  0  0
   10.1297   -1.6575   23.2324 C   0  0  0  0  0  0  0  0  0  0  0  0
    9.4684   -1.6929   26.7263 F   0  0  0  0  0  0  0  0  0  0  0  0
    7.7963   -7.7906   17.9837 C   0  0  0  0  0  0  0  0  0  0  0  0
   10.5884   -3.0725   16.7902 O   0  0  0  0  0  0  0  0  0  0  0  0
   10.4323   -5.3494   20.3516 C   0  0  0  0  0  0  0  0  0  0  0  0
    7.1156   -7.5454   16.8218 C   0  0  0  0  0  0  0  0  0  0  0  0
   10.3885   -4.4388   19.2773 C   0  0  0  0  0  0  0  0  0  0  0  0
    4.5160   -9.3822   15.0841 C   0  0  0  0  0  0  0  0  0  0  0  0
  1  3  4  0
  1 24  4  0
  2  6  4  0
  2 15  4  0
  3  5  4  0
  3  6  4  0
  4 21  4  0
  4 29  4  0
  5 15  4  0
  5 28  1  0
  6 16  4  0
  7 18  4  0
  7 26  4  0
  8 18  1  0
  8 19  4  0
  8 22  4  0
  9 12  4  0
  9 19  4  0
 10 12  4  0
 10 22  4  0
 11 20  4  0
 11 21  4  0
 12 23  1  0
 13 20  4  0
 13 29  4  0
 14 17  4  0
 14 28  4  0
 15 25  2  0
 16 27  4  0
 17 18  4  0
 20 27  1  0
 24 27  4  0
 26 28  4  0
M  END
$$$$

 Created by Python create_sdf_string function

 29 33  0  0  0  0  0  0  0  0999 V2000
    8.8270   -7.0288   18.4251 C   0  0  0  0  0  0  0  0  0  0  0  0
    9.1576   -4.6236   15.8860 O   0  0  0  0  0  0  0  0  0  0  0  0
    9.1509   -5.9108   17.7177 C   0  0  0  0  0  0  0  0  0  0  0  0
    3.6373   -9.5349   16.0582 N   0  0  0  0  0  0  0  0  0  0  0  0
    9.9275   -4.8001   18.0438 N   0  0  0  0  0  0  0  0  0  0  0  0
    8.5908   -5.7425   16.4412 C   0  0  0  0  0  0  0  0  0  0  0  0
   10.5993   -4.8981   21.6068 C   0  0  0  0  0  0  0  0  0  0  0  0
   10.4258   -3.0106   23.0998 C   0  0  0  0  0  0  0  0  0  0  0  0
   10.2148   -3.4364   25.4200 C   0  0  0  0  0  0  0  0  0  0  0  0
    9.7853   -1.1840   24.4927 C   0  0  0  0  0  0  0  0  0  0  0  0
    5.0276   -8.5227   17.5352 C   0  0  0  0  0  0  0  0  0  0  0  0
    9.8187   -2.0895   25.5800 C   0  0  0  0  0  0  0  0  0  0  0  0
    5.6473   -8.7216   15.3158 C   0  0  0  0  0  0  0  0  0  0  0  0
   10.7581   -3.1233   19.4720 N   0  0  0  0  0  0  0  0  0  0  0  0
    9.9571   -4.0573   16.8866 C   0  0  0  0  0  0  0  0  0  0  0  0
    7.6213   -6.5618   16.0087 C   0  0  0  0  0  0  0  0  0  0  0  0
   10.8583   -2.6527   20.7222 C   0  0  0  0  0  0  0  0  0  0  0  0
   10.6412   -3.5089   21.7936 C   0  0  0  0  0  0  0  0  0  0  0  0
   10.4972   -3.8968   24.1589 C   0  0  0  0  0  0  0  0  0  0  0  0
    5.9260   -8.2736   16.5517 C   0  0  0  0  0  0  0  0  0  0  0  0
    3.8816   -9.1166   17.2493 C   0  0  0  0  0  0  0  0  0  0  0  0
   10.1297   -1.6575   23.2324 C   0  0  0  0  0  0  0  0  0  0  0  0
    9.4684   -1.6929   26.7263 F   0  0  0  0  0  0  0  0  0  0  0  0
    7.7963   -7.7906   17.9837 C   0  0  0  0  0  0  0  0  0  0  0  0
   10.5884   -3.0725   16.7902 O   0  0  0  0  0  0  0  0  0  0  0  0
   10.4323   -5.3494   20.3516 C   0  0  0  0  0  0  0  0  0  0  0  0
    7.1156   -7.5454   16.8218 C   0  0  0  0  0  0  0  0  0  0  0  0
   10.3885   -4.4388   19.2773 C   0  0  0  0  0  0  0  0  0  0  0  0
    4.5160   -9.3822   15.0841 C   0  0  0  0  0  0  0  0  0  0  0  0
  1  3  4  0
  1 24  4  0
  2  6  4  0
  2 15  4  0
  3  5  4  0
  3  6  4  0
  4 21  4  0
  4 29  4  0
  5 15  4  0
  5 28  1  0
  6 16  4  0
  7 18  4  0
  7 26  4  0
  8 18  1  0
  8 19  4  0
  8 22  4  0
  9 12  4  0
  9 19  4  0
 10 12  4  0
 10 22  4  0
 11 20  4  0
 11 21  4  0
 12 23  1  0
 13 20  4  0
 13 29  4  0
 14 17  4  0
 14 28  4  0
 15 25  2  0
 16 27  4  0
 17 18  4  0
 20 27  1  0
 24 27  4  0
 26 28  4  0
M  END
$$$$

 Created by Python create_sdf_string function

 29 33  0  0  0  0  0  0  0  0999 V2000
    8.8270   -7.0288   18.4251 C   0  0  0  0  0  0  0  0  0  0  0  0
    9.1576   -4.6236   15.8860 O   0  0  0  0  0  0  0  0  0  0  0  0
    9.1509   -5.9108   17.7177 C   0  0  0  0  0  0  0  0  0  0  0  0
    3.6373   -9.5349   16.0582 N   0  0  0  0  0  0  0  0  0  0  0  0
    9.9275   -4.8001   18.0438 N   0  0  0  0  0  0  0  0  0  0  0  0
    8.5908   -5.7425   16.4412 C   0  0  0  0  0  0  0  0  0  0  0  0
   10.5993   -4.8981   21.6068 C   0  0  0  0  0  0  0  0  0  0  0  0
   10.4258   -3.0106   23.0998 C   0  0  0  0  0  0  0  0  0  0  0  0
   10.2148   -3.4364   25.4200 C   0  0  0  0  0  0  0  0  0  0  0  0
    9.7853   -1.1840   24.4927 C   0  0  0  0  0  0  0  0  0  0  0  0
    5.0276   -8.5227   17.5352 C   0  0  0  0  0  0  0  0  0  0  0  0
    9.8187   -2.0895   25.5800 C   0  0  0  0  0  0  0  0  0  0  0  0
    5.6473   -8.7216   15.3158 C   0  0  0  0  0  0  0  0  0  0  0  0
   10.7581   -3.1233   19.4720 N   0  0  0  0  0  0  0  0  0  0  0  0
    9.9571   -4.0573   16.8866 C   0  0  0  0  0  0  0  0  0  0  0  0
    7.6213   -6.5618   16.0087 C   0  0  0  0  0  0  0  0  0  0  0  0
   10.8583   -2.6527   20.7222 C   0  0  0  0  0  0  0  0  0  0  0  0
   10.6412   -3.5089   21.7936 C   0  0  0  0  0  0  0  0  0  0  0  0
   10.4972   -3.8968   24.1589 C   0  0  0  0  0  0  0  0  0  0  0  0
    5.9260   -8.2736   16.5517 C   0  0  0  0  0  0  0  0  0  0  0  0
    3.8816   -9.1166   17.2493 C   0  0  0  0  0  0  0  0  0  0  0  0
   10.1297   -1.6575   23.2324 C   0  0  0  0  0  0  0  0  0  0  0  0
    9.4684   -1.6929   26.7263 F   0  0  0  0  0  0  0  0  0  0  0  0
    7.7963   -7.7906   17.9837 C   0  0  0  0  0  0  0  0  0  0  0  0
   10.5884   -3.0725   16.7902 O   0  0  0  0  0  0  0  0  0  0  0  0
   10.4323   -5.3494   20.3516 C   0  0  0  0  0  0  0  0  0  0  0  0
    7.1156   -7.5454   16.8218 C   0  0  0  0  0  0  0  0  0  0  0  0
   10.3885   -4.4388   19.2773 C   0  0  0  0  0  0  0  0  0  0  0  0
    4.5160   -9.3822   15.0841 C   0  0  0  0  0  0  0  0  0  0  0  0
  1  3  4  0
  1 24  4  0
  2  6  4  0
  2 15  4  0
  3  5  4  0
  3  6  4  0
  4 21  4  0
  4 29  4  0
  5 15  4  0
  5 28  1  0
  6 16  4  0
  7 18  4  0
  7 26  4  0
  8 18  1  0
  8 19  4  0
  8 22  4  0
  9 12  4  0
  9 19  4  0
 10 12  4  0
 10 22  4  0
 11 20  4  0
 11 21  4  0
 12 23  1  0
 13 20  4  0
 13 29  4  0
 14 17  4  0
 14 28  4  0
 15 25  2  0
 16 27  4  0
 17 18  4  0
 20 27  1  0
 24 27  4  0
 26 28  4  0
M  END
$$$$

 Created by Python create_sdf_string function

 29 33  0  0  0  0  0  0  0  0999 V2000
    8.8270   -7.0288   18.4251 C   0  0  0  0  0  0  0  0  0  0  0  0
    9.1576   -4.6236   15.8860 O   0  0  0  0  0  0  0  0  0  0  0  0
    9.1509   -5.9108   17.7177 C   0  0  0  0  0  0  0  0  0  0  0  0
    3.6373   -9.5349   16.0582 N   0  0  0  0  0  0  0  0  0  0  0  0
    9.9275   -4.8001   18.0438 N   0  0  0  0  0  0  0  0  0  0  0  0
    8.5908   -5.7425   16.4412 C   0  0  0  0  0  0  0  0  0  0  0  0
   10.5993   -4.8981   21.6068 C   0  0  0  0  0  0  0  0  0  0  0  0
   10.4258   -3.0106   23.0998 C   0  0  0  0  0  0  0  0  0  0  0  0
   10.2148   -3.4364   25.4200 C   0  0  0  0  0  0  0  0  0  0  0  0
    9.7853   -1.1840   24.4927 C   0  0  0  0  0  0  0  0  0  0  0  0
    5.0276   -8.5227   17.5352 C   0  0  0  0  0  0  0  0  0  0  0  0
    9.8187   -2.0895   25.5800 C   0  0  0  0  0  0  0  0  0  0  0  0
    5.6473   -8.7216   15.3158 C   0  0  0  0  0  0  0  0  0  0  0  0
   10.7581   -3.1233   19.4720 N   0  0  0  0  0  0  0  0  0  0  0  0
    9.9571   -4.0573   16.8866 C   0  0  0  0  0  0  0  0  0  0  0  0
    7.6213   -6.5618   16.0087 C   0  0  0  0  0  0  0  0  0  0  0  0
   10.8583   -2.6527   20.7222 C   0  0  0  0  0  0  0  0  0  0  0  0
   10.6412   -3.5089   21.7936 C   0  0  0  0  0  0  0  0  0  0  0  0
   10.4972   -3.8968   24.1589 C   0  0  0  0  0  0  0  0  0  0  0  0
    5.9260   -8.2736   16.5517 C   0  0  0  0  0  0  0  0  0  0  0  0
    3.8816   -9.1166   17.2493 C   0  0  0  0  0  0  0  0  0  0  0  0
   10.1297   -1.6575   23.2324 C   0  0  0  0  0  0  0  0  0  0  0  0
    9.4684   -1.6929   26.7263 F   0  0  0  0  0  0  0  0  0  0  0  0
    7.7963   -7.7906   17.9837 C   0  0  0  0  0  0  0  0  0  0  0  0
   10.5884   -3.0725   16.7902 O   0  0  0  0  0  0  0  0  0  0  0  0
   10.4323   -5.3494   20.3516 C   0  0  0  0  0  0  0  0  0  0  0  0
    7.1156   -7.5454   16.8218 C   0  0  0  0  0  0  0  0  0  0  0  0
   10.3885   -4.4388   19.2773 C   0  0  0  0  0  0  0  0  0  0  0  0
    4.5160   -9.3822   15.0841 C   0  0  0  0  0  0  0  0  0  0  0  0
  1  3  4  0
  1 24  4  0
  2  6  4  0
  2 15  4  0
  3  5  4  0
  3  6  4  0
  4 21  4  0
  4 29  4  0
  5 15  4  0
  5 28  1  0
  6 16  4  0
  7 18  4  0
  7 26  4  0
  8 18  1  0
  8 19  4  0
  8 22  4  0
  9 12  4  0
  9 19  4  0
 10 12  4  0
 10 22  4  0
 11 20  4  0
 11 21  4  0
 12 23  1  0
 13 20  4  0
 13 29  4  0
 14 17  4  0
 14 28  4  0
 15 25  2  0
 16 27  4  0
 17 18  4  0
 20 27  1  0
 24 27  4  0
 26 28  4  0
M  END
$$$$

 Created by Python create_sdf_string function

 29 33  0  0  0  0  0  0  0  0999 V2000
    8.8270   -7.0288   18.4251 C   0  0  0  0  0  0  0  0  0  0  0  0
    9.1576   -4.6236   15.8860 O   0  0  0  0  0  0  0  0  0  0  0  0
    9.1509   -5.9108   17.7177 C   0  0  0  0  0  0  0  0  0  0  0  0
    3.6373   -9.5349   16.0582 N   0  0  0  0  0  0  0  0  0  0  0  0
    9.9275   -4.8001   18.0438 N   0  0  0  0  0  0  0  0  0  0  0  0
    8.5908   -5.7425   16.4412 C   0  0  0  0  0  0  0  0  0  0  0  0
   10.5993   -4.8981   21.6068 C   0  0  0  0  0  0  0  0  0  0  0  0
   10.4258   -3.0106   23.0998 C   0  0  0  0  0  0  0  0  0  0  0  0
   10.2148   -3.4364   25.4200 C   0  0  0  0  0  0  0  0  0  0  0  0
    9.7853   -1.1840   24.4927 C   0  0  0  0  0  0  0  0  0  0  0  0
    5.0276   -8.5227   17.5352 C   0  0  0  0  0  0  0  0  0  0  0  0
    9.8187   -2.0895   25.5800 C   0  0  0  0  0  0  0  0  0  0  0  0
    5.6473   -8.7216   15.3158 C   0  0  0  0  0  0  0  0  0  0  0  0
   10.7581   -3.1233   19.4720 N   0  0  0  0  0  0  0  0  0  0  0  0
    9.9571   -4.0573   16.8866 C   0  0  0  0  0  0  0  0  0  0  0  0
    7.6213   -6.5618   16.0087 C   0  0  0  0  0  0  0  0  0  0  0  0
   10.8583   -2.6527   20.7222 C   0  0  0  0  0  0  0  0  0  0  0  0
   10.6412   -3.5089   21.7936 C   0  0  0  0  0  0  0  0  0  0  0  0
   10.4972   -3.8968   24.1589 C   0  0  0  0  0  0  0  0  0  0  0  0
    5.9260   -8.2736   16.5517 C   0  0  0  0  0  0  0  0  0  0  0  0
    3.8816   -9.1166   17.2493 C   0  0  0  0  0  0  0  0  0  0  0  0
   10.1297   -1.6575   23.2324 C   0  0  0  0  0  0  0  0  0  0  0  0
    9.4684   -1.6929   26.7263 F   0  0  0  0  0  0  0  0  0  0  0  0
    7.7963   -7.7906   17.9837 C   0  0  0  0  0  0  0  0  0  0  0  0
   10.5884   -3.0725   16.7902 O   0  0  0  0  0  0  0  0  0  0  0  0
   10.4323   -5.3494   20.3516 C   0  0  0  0  0  0  0  0  0  0  0  0
    7.1156   -7.5454   16.8218 C   0  0  0  0  0  0  0  0  0  0  0  0
   10.3885   -4.4388   19.2773 C   0  0  0  0  0  0  0  0  0  0  0  0
    4.5160   -9.3822   15.0841 C   0  0  0  0  0  0  0  0  0  0  0  0
  1  3  4  0
  1 24  4  0
  2  6  4  0
  2 15  4  0
  3  5  4  0
  3  6  4  0
  4 21  4  0
  4 29  4  0
  5 15  4  0
  5 28  1  0
  6 16  4  0
  7 18  4  0
  7 26  4  0
  8 18  1  0
  8 19  4  0
  8 22  4  0
  9 12  4  0
  9 19  4  0
 10 12  4  0
 10 22  4  0
 11 20  4  0
 11 21  4  0
 12 23  1  0
 13 20  4  0
 13 29  4  0
 14 17  4  0
 14 28  4  0
 15 25  2  0
 16 27  4  0
 17 18  4  0
 20 27  1  0
 24 27  4  0
 26 28  4  0
M  END
$$$$

 Created by Python create_sdf_string function

 29 33  0  0  0  0  0  0  0  0999 V2000
    8.8270   -7.0288   18.4251 C   0  0  0  0  0  0  0  0  0  0  0  0
    9.1576   -4.6236   15.8860 O   0  0  0  0  0  0  0  0  0  0  0  0
    9.1509   -5.9108   17.7177 C   0  0  0  0  0  0  0  0  0  0  0  0
    3.6373   -9.5349   16.0582 N   0  0  0  0  0  0  0  0  0  0  0  0
    9.9275   -4.8001   18.0438 N   0  0  0  0  0  0  0  0  0  0  0  0
    8.5908   -5.7425   16.4412 C   0  0  0  0  0  0  0  0  0  0  0  0
   10.5993   -4.8981   21.6068 C   0  0  0  0  0  0  0  0  0  0  0  0
   10.4258   -3.0106   23.0998 C   0  0  0  0  0  0  0  0  0  0  0  0
   10.2148   -3.4364   25.4200 C   0  0  0  0  0  0  0  0  0  0  0  0
    9.7853   -1.1840   24.4927 C   0  0  0  0  0  0  0  0  0  0  0  0
    5.0276   -8.5227   17.5352 C   0  0  0  0  0  0  0  0  0  0  0  0
    9.8187   -2.0895   25.5800 C   0  0  0  0  0  0  0  0  0  0  0  0
    5.6473   -8.7216   15.3158 C   0  0  0  0  0  0  0  0  0  0  0  0
   10.7581   -3.1233   19.4720 N   0  0  0  0  0  0  0  0  0  0  0  0
    9.9571   -4.0573   16.8866 C   0  0  0  0  0  0  0  0  0  0  0  0
    7.6213   -6.5618   16.0087 C   0  0  0  0  0  0  0  0  0  0  0  0
   10.8583   -2.6527   20.7222 C   0  0  0  0  0  0  0  0  0  0  0  0
   10.6412   -3.5089   21.7936 C   0  0  0  0  0  0  0  0  0  0  0  0
   10.4972   -3.8968   24.1589 C   0  0  0  0  0  0  0  0  0  0  0  0
    5.9260   -8.2736   16.5517 C   0  0  0  0  0  0  0  0  0  0  0  0
    3.8816   -9.1166   17.2493 C   0  0  0  0  0  0  0  0  0  0  0  0
   10.1297   -1.6575   23.2324 C   0  0  0  0  0  0  0  0  0  0  0  0
    9.4684   -1.6929   26.7263 F   0  0  0  0  0  0  0  0  0  0  0  0
    7.7963   -7.7906   17.9837 C   0  0  0  0  0  0  0  0  0  0  0  0
   10.5884   -3.0725   16.7902 O   0  0  0  0  0  0  0  0  0  0  0  0
   10.4323   -5.3494   20.3516 C   0  0  0  0  0  0  0  0  0  0  0  0
    7.1156   -7.5454   16.8218 C   0  0  0  0  0  0  0  0  0  0  0  0
   10.3885   -4.4388   19.2773 C   0  0  0  0  0  0  0  0  0  0  0  0
    4.5160   -9.3822   15.0841 C   0  0  0  0  0  0  0  0  0  0  0  0
  1  3  4  0
  1 24  4  0
  2  6  4  0
  2 15  4  0
  3  5  4  0
  3  6  4  0
  4 21  4  0
  4 29  4  0
  5 15  4  0
  5 28  1  0
  6 16  4  0
  7 18  4  0
  7 26  4  0
  8 18  1  0
  8 19  4  0
  8 22  4  0
  9 12  4  0
  9 19  4  0
 10 12  4  0
 10 22  4  0
 11 20  4  0
 11 21  4  0
 12 23  1  0
 13 20  4  0
 13 29  4  0
 14 17  4  0
 14 28  4  0
 15 25  2  0
 16 27  4  0
 17 18  4  0
 20 27  1  0
 24 27  4  0
 26 28  4  0
M  END
$$$$

 Created by Python create_sdf_string function

 29 33  0  0  0  0  0  0  0  0999 V2000
    8.8270   -7.0288   18.4251 C   0  0  0  0  0  0  0  0  0  0  0  0
    9.1576   -4.6236   15.8860 O   0  0  0  0  0  0  0  0  0  0  0  0
    9.1509   -5.9108   17.7177 C   0  0  0  0  0  0  0  0  0  0  0  0
    3.6373   -9.5349   16.0582 N   0  0  0  0  0  0  0  0  0  0  0  0
    9.9275   -4.8001   18.0438 N   0  0  0  0  0  0  0  0  0  0  0  0
    8.5908   -5.7425   16.4412 C   0  0  0  0  0  0  0  0  0  0  0  0
   10.5993   -4.8981   21.6068 C   0  0  0  0  0  0  0  0  0  0  0  0
   10.4258   -3.0106   23.0998 C   0  0  0  0  0  0  0  0  0  0  0  0
   10.2148   -3.4364   25.4200 C   0  0  0  0  0  0  0  0  0  0  0  0
    9.7853   -1.1840   24.4927 C   0  0  0  0  0  0  0  0  0  0  0  0
    5.0276   -8.5227   17.5352 C   0  0  0  0  0  0  0  0  0  0  0  0
    9.8187   -2.0895   25.5800 C   0  0  0  0  0  0  0  0  0  0  0  0
    5.6473   -8.7216   15.3158 C   0  0  0  0  0  0  0  0  0  0  0  0
   10.7581   -3.1233   19.4720 N   0  0  0  0  0  0  0  0  0  0  0  0
    9.9571   -4.0573   16.8866 C   0  0  0  0  0  0  0  0  0  0  0  0
    7.6213   -6.5618   16.0087 C   0  0  0  0  0  0  0  0  0  0  0  0
   10.8583   -2.6527   20.7222 C   0  0  0  0  0  0  0  0  0  0  0  0
   10.6412   -3.5089   21.7936 C   0  0  0  0  0  0  0  0  0  0  0  0
   10.4972   -3.8968   24.1589 C   0  0  0  0  0  0  0  0  0  0  0  0
    5.9260   -8.2736   16.5517 C   0  0  0  0  0  0  0  0  0  0  0  0
    3.8816   -9.1166   17.2493 C   0  0  0  0  0  0  0  0  0  0  0  0
   10.1297   -1.6575   23.2324 C   0  0  0  0  0  0  0  0  0  0  0  0
    9.4684   -1.6929   26.7263 F   0  0  0  0  0  0  0  0  0  0  0  0
    7.7963   -7.7906   17.9837 C   0  0  0  0  0  0  0  0  0  0  0  0
   10.5884   -3.0725   16.7902 O   0  0  0  0  0  0  0  0  0  0  0  0
   10.4323   -5.3494   20.3516 C   0  0  0  0  0  0  0  0  0  0  0  0
    7.1156   -7.5454   16.8218 C   0  0  0  0  0  0  0  0  0  0  0  0
   10.3885   -4.4388   19.2773 C   0  0  0  0  0  0  0  0  0  0  0  0
    4.5160   -9.3822   15.0841 C   0  0  0  0  0  0  0  0  0  0  0  0
  1  3  4  0
  1 24  4  0
  2  6  4  0
  2 15  4  0
  3  5  4  0
  3  6  4  0
  4 21  4  0
  4 29  4  0
  5 15  4  0
  5 28  1  0
  6 16  4  0
  7 18  4  0
  7 26  4  0
  8 18  1  0
  8 19  4  0
  8 22  4  0
  9 12  4  0
  9 19  4  0
 10 12  4  0
 10 22  4  0
 11 20  4  0
 11 21  4  0
 12 23  1  0
 13 20  4  0
 13 29  4  0
 14 17  4  0
 14 28  4  0
 15 25  2  0
 16 27  4  0
 17 18  4  0
 20 27  1  0
 24 27  4  0
 26 28  4  0
M  END
$$$$

 Created by Python create_sdf_string function

 29 33  0  0  0  0  0  0  0  0999 V2000
    8.8270   -7.0288   18.4251 C   0  0  0  0  0  0  0  0  0  0  0  0
    9.1576   -4.6236   15.8860 O   0  0  0  0  0  0  0  0  0  0  0  0
    9.1509   -5.9108   17.7177 C   0  0  0  0  0  0  0  0  0  0  0  0
    3.6373   -9.5349   16.0582 N   0  0  0  0  0  0  0  0  0  0  0  0
    9.9275   -4.8001   18.0438 N   0  0  0  0  0  0  0  0  0  0  0  0
    8.5908   -5.7425   16.4412 C   0  0  0  0  0  0  0  0  0  0  0  0
   10.5993   -4.8981   21.6068 C   0  0  0  0  0  0  0  0  0  0  0  0
   10.4258   -3.0106   23.0998 C   0  0  0  0  0  0  0  0  0  0  0  0
   10.2148   -3.4364   25.4200 C   0  0  0  0  0  0  0  0  0  0  0  0
    9.7853   -1.1840   24.4927 C   0  0  0  0  0  0  0  0  0  0  0  0
    5.0276   -8.5227   17.5352 C   0  0  0  0  0  0  0  0  0  0  0  0
    9.8187   -2.0895   25.5800 C   0  0  0  0  0  0  0  0  0  0  0  0
    5.6473   -8.7216   15.3158 C   0  0  0  0  0  0  0  0  0  0  0  0
   10.7581   -3.1233   19.4720 N   0  0  0  0  0  0  0  0  0  0  0  0
    9.9571   -4.0573   16.8866 C   0  0  0  0  0  0  0  0  0  0  0  0
    7.6213   -6.5618   16.0087 C   0  0  0  0  0  0  0  0  0  0  0  0
   10.8583   -2.6527   20.7222 C   0  0  0  0  0  0  0  0  0  0  0  0
   10.6412   -3.5089   21.7936 C   0  0  0  0  0  0  0  0  0  0  0  0
   10.4972   -3.8968   24.1589 C   0  0  0  0  0  0  0  0  0  0  0  0
    5.9260   -8.2736   16.5517 C   0  0  0  0  0  0  0  0  0  0  0  0
    3.8816   -9.1166   17.2493 C   0  0  0  0  0  0  0  0  0  0  0  0
   10.1297   -1.6575   23.2324 C   0  0  0  0  0  0  0  0  0  0  0  0
    9.4684   -1.6929   26.7263 F   0  0  0  0  0  0  0  0  0  0  0  0
    7.7963   -7.7906   17.9837 C   0  0  0  0  0  0  0  0  0  0  0  0
   10.5884   -3.0725   16.7902 O   0  0  0  0  0  0  0  0  0  0  0  0
   10.4323   -5.3494   20.3516 C   0  0  0  0  0  0  0  0  0  0  0  0
    7.1156   -7.5454   16.8218 C   0  0  0  0  0  0  0  0  0  0  0  0
   10.3885   -4.4388   19.2773 C   0  0  0  0  0  0  0  0  0  0  0  0
    4.5160   -9.3822   15.0841 C   0  0  0  0  0  0  0  0  0  0  0  0
  1  3  4  0
  1 24  4  0
  2  6  4  0
  2 15  4  0
  3  5  4  0
  3  6  4  0
  4 21  4  0
  4 29  4  0
  5 15  4  0
  5 28  1  0
  6 16  4  0
  7 18  4  0
  7 26  4  0
  8 18  1  0
  8 19  4  0
  8 22  4  0
  9 12  4  0
  9 19  4  0
 10 12  4  0
 10 22  4  0
 11 20  4  0
 11 21  4  0
 12 23  1  0
 13 20  4  0
 13 29  4  0
 14 17  4  0
 14 28  4  0
 15 25  2  0
 16 27  4  0
 17 18  4  0
 20 27  1  0
 24 27  4  0
 26 28  4  0
M  END
$$$$

 Created by Python create_sdf_string function

 29 33  0  0  0  0  0  0  0  0999 V2000
    8.8270   -7.0288   18.4251 C   0  0  0  0  0  0  0  0  0  0  0  0
    9.1576   -4.6236   15.8860 O   0  0  0  0  0  0  0  0  0  0  0  0
    9.1509   -5.9108   17.7177 C   0  0  0  0  0  0  0  0  0  0  0  0
    3.6373   -9.5349   16.0582 N   0  0  0  0  0  0  0  0  0  0  0  0
    9.9275   -4.8001   18.0438 N   0  0  0  0  0  0  0  0  0  0  0  0
    8.5908   -5.7425   16.4412 C   0  0  0  0  0  0  0  0  0  0  0  0
   10.5993   -4.8981   21.6068 C   0  0  0  0  0  0  0  0  0  0  0  0
   10.4258   -3.0106   23.0998 C   0  0  0  0  0  0  0  0  0  0  0  0
   10.2148   -3.4364   25.4200 C   0  0  0  0  0  0  0  0  0  0  0  0
    9.7853   -1.1840   24.4927 C   0  0  0  0  0  0  0  0  0  0  0  0
    5.0276   -8.5227   17.5352 C   0  0  0  0  0  0  0  0  0  0  0  0
    9.8187   -2.0895   25.5800 C   0  0  0  0  0  0  0  0  0  0  0  0
    5.6473   -8.7216   15.3158 C   0  0  0  0  0  0  0  0  0  0  0  0
   10.7581   -3.1233   19.4720 N   0  0  0  0  0  0  0  0  0  0  0  0
    9.9571   -4.0573   16.8866 C   0  0  0  0  0  0  0  0  0  0  0  0
    7.6213   -6.5618   16.0087 C   0  0  0  0  0  0  0  0  0  0  0  0
   10.8583   -2.6527   20.7222 C   0  0  0  0  0  0  0  0  0  0  0  0
   10.6412   -3.5089   21.7936 C   0  0  0  0  0  0  0  0  0  0  0  0
   10.4972   -3.8968   24.1589 C   0  0  0  0  0  0  0  0  0  0  0  0
    5.9260   -8.2736   16.5517 C   0  0  0  0  0  0  0  0  0  0  0  0
    3.8816   -9.1166   17.2493 C   0  0  0  0  0  0  0  0  0  0  0  0
   10.1297   -1.6575   23.2324 C   0  0  0  0  0  0  0  0  0  0  0  0
    9.4684   -1.6929   26.7263 F   0  0  0  0  0  0  0  0  0  0  0  0
    7.7963   -7.7906   17.9837 C   0  0  0  0  0  0  0  0  0  0  0  0
   10.5884   -3.0725   16.7902 O   0  0  0  0  0  0  0  0  0  0  0  0
   10.4323   -5.3494   20.3516 C   0  0  0  0  0  0  0  0  0  0  0  0
    7.1156   -7.5454   16.8218 C   0  0  0  0  0  0  0  0  0  0  0  0
   10.3885   -4.4388   19.2773 C   0  0  0  0  0  0  0  0  0  0  0  0
    4.5160   -9.3822   15.0841 C   0  0  0  0  0  0  0  0  0  0  0  0
  1  3  4  0
  1 24  4  0
  2  6  4  0
  2 15  4  0
  3  5  4  0
  3  6  4  0
  4 21  4  0
  4 29  4  0
  5 15  4  0
  5 28  1  0
  6 16  4  0
  7 18  4  0
  7 26  4  0
  8 18  1  0
  8 19  4  0
  8 22  4  0
  9 12  4  0
  9 19  4  0
 10 12  4  0
 10 22  4  0
 11 20  4  0
 11 21  4  0
 12 23  1  0
 13 20  4  0
 13 29  4  0
 14 17  4  0
 14 28  4  0
 15 25  2  0
 16 27  4  0
 17 18  4  0
 20 27  1  0
 24 27  4  0
 26 28  4  0
M  END
$$$$

 Created by Python create_sdf_string function

 29 33  0  0  0  0  0  0  0  0999 V2000
    8.8270   -7.0288   18.4251 C   0  0  0  0  0  0  0  0  0  0  0  0
    9.1576   -4.6236   15.8860 O   0  0  0  0  0  0  0  0  0  0  0  0
    9.1509   -5.9108   17.7177 C   0  0  0  0  0  0  0  0  0  0  0  0
    3.6373   -9.5349   16.0582 N   0  0  0  0  0  0  0  0  0  0  0  0
    9.9275   -4.8001   18.0438 N   0  0  0  0  0  0  0  0  0  0  0  0
    8.5908   -5.7425   16.4412 C   0  0  0  0  0  0  0  0  0  0  0  0
   10.5993   -4.8981   21.6068 C   0  0  0  0  0  0  0  0  0  0  0  0
   10.4258   -3.0106   23.0998 C   0  0  0  0  0  0  0  0  0  0  0  0
   10.2148   -3.4364   25.4200 C   0  0  0  0  0  0  0  0  0  0  0  0
    9.7853   -1.1840   24.4927 C   0  0  0  0  0  0  0  0  0  0  0  0
    5.0276   -8.5227   17.5352 C   0  0  0  0  0  0  0  0  0  0  0  0
    9.8187   -2.0895   25.5800 C   0  0  0  0  0  0  0  0  0  0  0  0
    5.6473   -8.7216   15.3158 C   0  0  0  0  0  0  0  0  0  0  0  0
   10.7581   -3.1233   19.4720 N   0  0  0  0  0  0  0  0  0  0  0  0
    9.9571   -4.0573   16.8866 C   0  0  0  0  0  0  0  0  0  0  0  0
    7.6213   -6.5618   16.0087 C   0  0  0  0  0  0  0  0  0  0  0  0
   10.8583   -2.6527   20.7222 C   0  0  0  0  0  0  0  0  0  0  0  0
   10.6412   -3.5089   21.7936 C   0  0  0  0  0  0  0  0  0  0  0  0
   10.4972   -3.8968   24.1589 C   0  0  0  0  0  0  0  0  0  0  0  0
    5.9260   -8.2736   16.5517 C   0  0  0  0  0  0  0  0  0  0  0  0
    3.8816   -9.1166   17.2493 C   0  0  0  0  0  0  0  0  0  0  0  0
   10.1297   -1.6575   23.2324 C   0  0  0  0  0  0  0  0  0  0  0  0
    9.4684   -1.6929   26.7263 F   0  0  0  0  0  0  0  0  0  0  0  0
    7.7963   -7.7906   17.9837 C   0  0  0  0  0  0  0  0  0  0  0  0
   10.5884   -3.0725   16.7902 O   0  0  0  0  0  0  0  0  0  0  0  0
   10.4323   -5.3494   20.3516 C   0  0  0  0  0  0  0  0  0  0  0  0
    7.1156   -7.5454   16.8218 C   0  0  0  0  0  0  0  0  0  0  0  0
   10.3885   -4.4388   19.2773 C   0  0  0  0  0  0  0  0  0  0  0  0
    4.5160   -9.3822   15.0841 C   0  0  0  0  0  0  0  0  0  0  0  0
  1  3  4  0
  1 24  4  0
  2  6  4  0
  2 15  4  0
  3  5  4  0
  3  6  4  0
  4 21  4  0
  4 29  4  0
  5 15  4  0
  5 28  1  0
  6 16  4  0
  7 18  4  0
  7 26  4  0
  8 18  1  0
  8 19  4  0
  8 22  4  0
  9 12  4  0
  9 19  4  0
 10 12  4  0
 10 22  4  0
 11 20  4  0
 11 21  4  0
 12 23  1  0
 13 20  4  0
 13 29  4  0
 14 17  4  0
 14 28  4  0
 15 25  2  0
 16 27  4  0
 17 18  4  0
 20 27  1  0
 24 27  4  0
 26 28  4  0
M  END
$$$$

 Created by Python create_sdf_string function

 29 33  0  0  0  0  0  0  0  0999 V2000
    8.8270   -7.0288   18.4251 C   0  0  0  0  0  0  0  0  0  0  0  0
    9.1576   -4.6236   15.8860 O   0  0  0  0  0  0  0  0  0  0  0  0
    9.1509   -5.9108   17.7177 C   0  0  0  0  0  0  0  0  0  0  0  0
    3.6373   -9.5349   16.0582 N   0  0  0  0  0  0  0  0  0  0  0  0
    9.9275   -4.8001   18.0438 N   0  0  0  0  0  0  0  0  0  0  0  0
    8.5908   -5.7425   16.4412 C   0  0  0  0  0  0  0  0  0  0  0  0
   10.5993   -4.8981   21.6068 C   0  0  0  0  0  0  0  0  0  0  0  0
   10.4258   -3.0106   23.0998 C   0  0  0  0  0  0  0  0  0  0  0  0
   10.2148   -3.4364   25.4200 C   0  0  0  0  0  0  0  0  0  0  0  0
    9.7853   -1.1840   24.4927 C   0  0  0  0  0  0  0  0  0  0  0  0
    5.0276   -8.5227   17.5352 C   0  0  0  0  0  0  0  0  0  0  0  0
    9.8187   -2.0895   25.5800 C   0  0  0  0  0  0  0  0  0  0  0  0
    5.6473   -8.7216   15.3158 C   0  0  0  0  0  0  0  0  0  0  0  0
   10.7581   -3.1233   19.4720 N   0  0  0  0  0  0  0  0  0  0  0  0
    9.9571   -4.0573   16.8866 C   0  0  0  0  0  0  0  0  0  0  0  0
    7.6213   -6.5618   16.0087 C   0  0  0  0  0  0  0  0  0  0  0  0
   10.8583   -2.6527   20.7222 C   0  0  0  0  0  0  0  0  0  0  0  0
   10.6412   -3.5089   21.7936 C   0  0  0  0  0  0  0  0  0  0  0  0
   10.4972   -3.8968   24.1589 C   0  0  0  0  0  0  0  0  0  0  0  0
    5.9260   -8.2736   16.5517 C   0  0  0  0  0  0  0  0  0  0  0  0
    3.8816   -9.1166   17.2493 C   0  0  0  0  0  0  0  0  0  0  0  0
   10.1297   -1.6575   23.2324 C   0  0  0  0  0  0  0  0  0  0  0  0
    9.4684   -1.6929   26.7263 F   0  0  0  0  0  0  0  0  0  0  0  0
    7.7963   -7.7906   17.9837 C   0  0  0  0  0  0  0  0  0  0  0  0
   10.5884   -3.0725   16.7902 O   0  0  0  0  0  0  0  0  0  0  0  0
   10.4323   -5.3494   20.3516 C   0  0  0  0  0  0  0  0  0  0  0  0
    7.1156   -7.5454   16.8218 C   0  0  0  0  0  0  0  0  0  0  0  0
   10.3885   -4.4388   19.2773 C   0  0  0  0  0  0  0  0  0  0  0  0
    4.5160   -9.3822   15.0841 C   0  0  0  0  0  0  0  0  0  0  0  0
  1  3  4  0
  1 24  4  0
  2  6  4  0
  2 15  4  0
  3  5  4  0
  3  6  4  0
  4 21  4  0
  4 29  4  0
  5 15  4  0
  5 28  1  0
  6 16  4  0
  7 18  4  0
  7 26  4  0
  8 18  1  0
  8 19  4  0
  8 22  4  0
  9 12  4  0
  9 19  4  0
 10 12  4  0
 10 22  4  0
 11 20  4  0
 11 21  4  0
 12 23  1  0
 13 20  4  0
 13 29  4  0
 14 17  4  0
 14 28  4  0
 15 25  2  0
 16 27  4  0
 17 18  4  0
 20 27  1  0
 24 27  4  0
 26 28  4  0
M  END
$$$$

 Created by Python create_sdf_string function

 29 33  0  0  0  0  0  0  0  0999 V2000
    8.8270   -7.0288   18.4251 C   0  0  0  0  0  0  0  0  0  0  0  0
    9.1576   -4.6236   15.8860 O   0  0  0  0  0  0  0  0  0  0  0  0
    9.1509   -5.9108   17.7177 C   0  0  0  0  0  0  0  0  0  0  0  0
    3.6373   -9.5349   16.0582 N   0  0  0  0  0  0  0  0  0  0  0  0
    9.9275   -4.8001   18.0438 N   0  0  0  0  0  0  0  0  0  0  0  0
    8.5908   -5.7425   16.4412 C   0  0  0  0  0  0  0  0  0  0  0  0
   10.5993   -4.8981   21.6068 C   0  0  0  0  0  0  0  0  0  0  0  0
   10.4258   -3.0106   23.0998 C   0  0  0  0  0  0  0  0  0  0  0  0
   10.2148   -3.4364   25.4200 C   0  0  0  0  0  0  0  0  0  0  0  0
    9.7853   -1.1840   24.4927 C   0  0  0  0  0  0  0  0  0  0  0  0
    5.0276   -8.5227   17.5352 C   0  0  0  0  0  0  0  0  0  0  0  0
    9.8187   -2.0895   25.5800 C   0  0  0  0  0  0  0  0  0  0  0  0
    5.6473   -8.7216   15.3158 C   0  0  0  0  0  0  0  0  0  0  0  0
   10.7581   -3.1233   19.4720 N   0  0  0  0  0  0  0  0  0  0  0  0
    9.9571   -4.0573   16.8866 C   0  0  0  0  0  0  0  0  0  0  0  0
    7.6213   -6.5618   16.0087 C   0  0  0  0  0  0  0  0  0  0  0  0
   10.8583   -2.6527   20.7222 C   0  0  0  0  0  0  0  0  0  0  0  0
   10.6412   -3.5089   21.7936 C   0  0  0  0  0  0  0  0  0  0  0  0
   10.4972   -3.8968   24.1589 C   0  0  0  0  0  0  0  0  0  0  0  0
    5.9260   -8.2736   16.5517 C   0  0  0  0  0  0  0  0  0  0  0  0
    3.8816   -9.1166   17.2493 C   0  0  0  0  0  0  0  0  0  0  0  0
   10.1297   -1.6575   23.2324 C   0  0  0  0  0  0  0  0  0  0  0  0
    9.4684   -1.6929   26.7263 F   0  0  0  0  0  0  0  0  0  0  0  0
    7.7963   -7.7906   17.9837 C   0  0  0  0  0  0  0  0  0  0  0  0
   10.5884   -3.0725   16.7902 O   0  0  0  0  0  0  0  0  0  0  0  0
   10.4323   -5.3494   20.3516 C   0  0  0  0  0  0  0  0  0  0  0  0
    7.1156   -7.5454   16.8218 C   0  0  0  0  0  0  0  0  0  0  0  0
   10.3885   -4.4388   19.2773 C   0  0  0  0  0  0  0  0  0  0  0  0
    4.5160   -9.3822   15.0841 C   0  0  0  0  0  0  0  0  0  0  0  0
  1  3  4  0
  1 24  4  0
  2  6  4  0
  2 15  4  0
  3  5  4  0
  3  6  4  0
  4 21  4  0
  4 29  4  0
  5 15  4  0
  5 28  1  0
  6 16  4  0
  7 18  4  0
  7 26  4  0
  8 18  1  0
  8 19  4  0
  8 22  4  0
  9 12  4  0
  9 19  4  0
 10 12  4  0
 10 22  4  0
 11 20  4  0
 11 21  4  0
 12 23  1  0
 13 20  4  0
 13 29  4  0
 14 17  4  0
 14 28  4  0
 15 25  2  0
 16 27  4  0
 17 18  4  0
 20 27  1  0
 24 27  4  0
 26 28  4  0
M  END
$$$$

 Created by Python create_sdf_string function

 29 33  0  0  0  0  0  0  0  0999 V2000
    8.8270   -7.0288   18.4251 C   0  0  0  0  0  0  0  0  0  0  0  0
    9.1576   -4.6236   15.8860 O   0  0  0  0  0  0  0  0  0  0  0  0
    9.1509   -5.9108   17.7177 C   0  0  0  0  0  0  0  0  0  0  0  0
    3.6373   -9.5349   16.0582 N   0  0  0  0  0  0  0  0  0  0  0  0
    9.9275   -4.8001   18.0438 N   0  0  0  0  0  0  0  0  0  0  0  0
    8.5908   -5.7425   16.4412 C   0  0  0  0  0  0  0  0  0  0  0  0
   10.5993   -4.8981   21.6068 C   0  0  0  0  0  0  0  0  0  0  0  0
   10.4258   -3.0106   23.0998 C   0  0  0  0  0  0  0  0  0  0  0  0
   10.2148   -3.4364   25.4200 C   0  0  0  0  0  0  0  0  0  0  0  0
    9.7853   -1.1840   24.4927 C   0  0  0  0  0  0  0  0  0  0  0  0
    5.0276   -8.5227   17.5352 C   0  0  0  0  0  0  0  0  0  0  0  0
    9.8187   -2.0895   25.5800 C   0  0  0  0  0  0  0  0  0  0  0  0
    5.6473   -8.7216   15.3158 C   0  0  0  0  0  0  0  0  0  0  0  0
   10.7581   -3.1233   19.4720 N   0  0  0  0  0  0  0  0  0  0  0  0
    9.9571   -4.0573   16.8866 C   0  0  0  0  0  0  0  0  0  0  0  0
    7.6213   -6.5618   16.0087 C   0  0  0  0  0  0  0  0  0  0  0  0
   10.8583   -2.6527   20.7222 C   0  0  0  0  0  0  0  0  0  0  0  0
   10.6412   -3.5089   21.7936 C   0  0  0  0  0  0  0  0  0  0  0  0
   10.4972   -3.8968   24.1589 C   0  0  0  0  0  0  0  0  0  0  0  0
    5.9260   -8.2736   16.5517 C   0  0  0  0  0  0  0  0  0  0  0  0
    3.8816   -9.1166   17.2493 C   0  0  0  0  0  0  0  0  0  0  0  0
   10.1297   -1.6575   23.2324 C   0  0  0  0  0  0  0  0  0  0  0  0
    9.4684   -1.6929   26.7263 F   0  0  0  0  0  0  0  0  0  0  0  0
    7.7963   -7.7906   17.9837 C   0  0  0  0  0  0  0  0  0  0  0  0
   10.5884   -3.0725   16.7902 O   0  0  0  0  0  0  0  0  0  0  0  0
   10.4323   -5.3494   20.3516 C   0  0  0  0  0  0  0  0  0  0  0  0
    7.1156   -7.5454   16.8218 C   0  0  0  0  0  0  0  0  0  0  0  0
   10.3885   -4.4388   19.2773 C   0  0  0  0  0  0  0  0  0  0  0  0
    4.5160   -9.3822   15.0841 C   0  0  0  0  0  0  0  0  0  0  0  0
  1  3  4  0
  1 24  4  0
  2  6  4  0
  2 15  4  0
  3  5  4  0
  3  6  4  0
  4 21  4  0
  4 29  4  0
  5 15  4  0
  5 28  1  0
  6 16  4  0
  7 18  4  0
  7 26  4  0
  8 18  1  0
  8 19  4  0
  8 22  4  0
  9 12  4  0
  9 19  4  0
 10 12  4  0
 10 22  4  0
 11 20  4  0
 11 21  4  0
 12 23  1  0
 13 20  4  0
 13 29  4  0
 14 17  4  0
 14 28  4  0
 15 25  2  0
 16 27  4  0
 17 18  4  0
 20 27  1  0
 24 27  4  0
 26 28  4  0
M  END
$$$$

 Created by Python create_sdf_string function

 29 33  0  0  0  0  0  0  0  0999 V2000
    8.8270   -7.0288   18.4251 C   0  0  0  0  0  0  0  0  0  0  0  0
    9.1576   -4.6236   15.8860 O   0  0  0  0  0  0  0  0  0  0  0  0
    9.1509   -5.9108   17.7177 C   0  0  0  0  0  0  0  0  0  0  0  0
    3.6373   -9.5349   16.0582 N   0  0  0  0  0  0  0  0  0  0  0  0
    9.9275   -4.8001   18.0438 N   0  0  0  0  0  0  0  0  0  0  0  0
    8.5908   -5.7425   16.4412 C   0  0  0  0  0  0  0  0  0  0  0  0
   10.5993   -4.8981   21.6068 C   0  0  0  0  0  0  0  0  0  0  0  0
   10.4258   -3.0106   23.0998 C   0  0  0  0  0  0  0  0  0  0  0  0
   10.2148   -3.4364   25.4200 C   0  0  0  0  0  0  0  0  0  0  0  0
    9.7853   -1.1840   24.4927 C   0  0  0  0  0  0  0  0  0  0  0  0
    5.0276   -8.5227   17.5352 C   0  0  0  0  0  0  0  0  0  0  0  0
    9.8187   -2.0895   25.5800 C   0  0  0  0  0  0  0  0  0  0  0  0
    5.6473   -8.7216   15.3158 C   0  0  0  0  0  0  0  0  0  0  0  0
   10.7581   -3.1233   19.4720 N   0  0  0  0  0  0  0  0  0  0  0  0
    9.9571   -4.0573   16.8866 C   0  0  0  0  0  0  0  0  0  0  0  0
    7.6213   -6.5618   16.0087 C   0  0  0  0  0  0  0  0  0  0  0  0
   10.8583   -2.6527   20.7222 C   0  0  0  0  0  0  0  0  0  0  0  0
   10.6412   -3.5089   21.7936 C   0  0  0  0  0  0  0  0  0  0  0  0
   10.4972   -3.8968   24.1589 C   0  0  0  0  0  0  0  0  0  0  0  0
    5.9260   -8.2736   16.5517 C   0  0  0  0  0  0  0  0  0  0  0  0
    3.8816   -9.1166   17.2493 C   0  0  0  0  0  0  0  0  0  0  0  0
   10.1297   -1.6575   23.2324 C   0  0  0  0  0  0  0  0  0  0  0  0
    9.4684   -1.6929   26.7263 F   0  0  0  0  0  0  0  0  0  0  0  0
    7.7963   -7.7906   17.9837 C   0  0  0  0  0  0  0  0  0  0  0  0
   10.5884   -3.0725   16.7902 O   0  0  0  0  0  0  0  0  0  0  0  0
   10.4323   -5.3494   20.3516 C   0  0  0  0  0  0  0  0  0  0  0  0
    7.1156   -7.5454   16.8218 C   0  0  0  0  0  0  0  0  0  0  0  0
   10.3885   -4.4388   19.2773 C   0  0  0  0  0  0  0  0  0  0  0  0
    4.5160   -9.3822   15.0841 C   0  0  0  0  0  0  0  0  0  0  0  0
  1  3  4  0
  1 24  4  0
  2  6  4  0
  2 15  4  0
  3  5  4  0
  3  6  4  0
  4 21  4  0
  4 29  4  0
  5 15  4  0
  5 28  1  0
  6 16  4  0
  7 18  4  0
  7 26  4  0
  8 18  1  0
  8 19  4  0
  8 22  4  0
  9 12  4  0
  9 19  4  0
 10 12  4  0
 10 22  4  0
 11 20  4  0
 11 21  4  0
 12 23  1  0
 13 20  4  0
 13 29  4  0
 14 17  4  0
 14 28  4  0
 15 25  2  0
 16 27  4  0
 17 18  4  0
 20 27  1  0
 24 27  4  0
 26 28  4  0
M  END
$$$$

 Created by Python create_sdf_string function

 29 33  0  0  0  0  0  0  0  0999 V2000
    8.8270   -7.0288   18.4251 C   0  0  0  0  0  0  0  0  0  0  0  0
    9.1576   -4.6236   15.8860 O   0  0  0  0  0  0  0  0  0  0  0  0
    9.1509   -5.9108   17.7177 C   0  0  0  0  0  0  0  0  0  0  0  0
    3.6373   -9.5349   16.0582 N   0  0  0  0  0  0  0  0  0  0  0  0
    9.9275   -4.8001   18.0438 N   0  0  0  0  0  0  0  0  0  0  0  0
    8.5908   -5.7425   16.4412 C   0  0  0  0  0  0  0  0  0  0  0  0
   10.5993   -4.8981   21.6068 C   0  0  0  0  0  0  0  0  0  0  0  0
   10.4258   -3.0106   23.0998 C   0  0  0  0  0  0  0  0  0  0  0  0
   10.2148   -3.4364   25.4200 C   0  0  0  0  0  0  0  0  0  0  0  0
    9.7853   -1.1840   24.4927 C   0  0  0  0  0  0  0  0  0  0  0  0
    5.0276   -8.5227   17.5352 C   0  0  0  0  0  0  0  0  0  0  0  0
    9.8187   -2.0895   25.5800 C   0  0  0  0  0  0  0  0  0  0  0  0
    5.6473   -8.7216   15.3158 C   0  0  0  0  0  0  0  0  0  0  0  0
   10.7581   -3.1233   19.4720 N   0  0  0  0  0  0  0  0  0  0  0  0
    9.9571   -4.0573   16.8866 C   0  0  0  0  0  0  0  0  0  0  0  0
    7.6213   -6.5618   16.0087 C   0  0  0  0  0  0  0  0  0  0  0  0
   10.8583   -2.6527   20.7222 C   0  0  0  0  0  0  0  0  0  0  0  0
   10.6412   -3.5089   21.7936 C   0  0  0  0  0  0  0  0  0  0  0  0
   10.4972   -3.8968   24.1589 C   0  0  0  0  0  0  0  0  0  0  0  0
    5.9260   -8.2736   16.5517 C   0  0  0  0  0  0  0  0  0  0  0  0
    3.8816   -9.1166   17.2493 C   0  0  0  0  0  0  0  0  0  0  0  0
   10.1297   -1.6575   23.2324 C   0  0  0  0  0  0  0  0  0  0  0  0
    9.4684   -1.6929   26.7263 F   0  0  0  0  0  0  0  0  0  0  0  0
    7.7963   -7.7906   17.9837 C   0  0  0  0  0  0  0  0  0  0  0  0
   10.5884   -3.0725   16.7902 O   0  0  0  0  0  0  0  0  0  0  0  0
   10.4323   -5.3494   20.3516 C   0  0  0  0  0  0  0  0  0  0  0  0
    7.1156   -7.5454   16.8218 C   0  0  0  0  0  0  0  0  0  0  0  0
   10.3885   -4.4388   19.2773 C   0  0  0  0  0  0  0  0  0  0  0  0
    4.5160   -9.3822   15.0841 C   0  0  0  0  0  0  0  0  0  0  0  0
  1  3  4  0
  1 24  4  0
  2  6  4  0
  2 15  4  0
  3  5  4  0
  3  6  4  0
  4 21  4  0
  4 29  4  0
  5 15  4  0
  5 28  1  0
  6 16  4  0
  7 18  4  0
  7 26  4  0
  8 18  1  0
  8 19  4  0
  8 22  4  0
  9 12  4  0
  9 19  4  0
 10 12  4  0
 10 22  4  0
 11 20  4  0
 11 21  4  0
 12 23  1  0
 13 20  4  0
 13 29  4  0
 14 17  4  0
 14 28  4  0
 15 25  2  0
 16 27  4  0
 17 18  4  0
 20 27  1  0
 24 27  4  0
 26 28  4  0
M  END
$$$$

 Created by Python create_sdf_string function

 29 33  0  0  0  0  0  0  0  0999 V2000
    8.8270   -7.0288   18.4251 C   0  0  0  0  0  0  0  0  0  0  0  0
    9.1576   -4.6236   15.8860 O   0  0  0  0  0  0  0  0  0  0  0  0
    9.1509   -5.9108   17.7177 C   0  0  0  0  0  0  0  0  0  0  0  0
    3.6373   -9.5349   16.0582 N   0  0  0  0  0  0  0  0  0  0  0  0
    9.9275   -4.8001   18.0438 N   0  0  0  0  0  0  0  0  0  0  0  0
    8.5908   -5.7425   16.4412 C   0  0  0  0  0  0  0  0  0  0  0  0
   10.5993   -4.8981   21.6068 C   0  0  0  0  0  0  0  0  0  0  0  0
   10.4258   -3.0106   23.0998 C   0  0  0  0  0  0  0  0  0  0  0  0
   10.2148   -3.4364   25.4200 C   0  0  0  0  0  0  0  0  0  0  0  0
    9.7853   -1.1840   24.4927 C   0  0  0  0  0  0  0  0  0  0  0  0
    5.0276   -8.5227   17.5352 C   0  0  0  0  0  0  0  0  0  0  0  0
    9.8187   -2.0895   25.5800 C   0  0  0  0  0  0  0  0  0  0  0  0
    5.6473   -8.7216   15.3158 C   0  0  0  0  0  0  0  0  0  0  0  0
   10.7581   -3.1233   19.4720 N   0  0  0  0  0  0  0  0  0  0  0  0
    9.9571   -4.0573   16.8866 C   0  0  0  0  0  0  0  0  0  0  0  0
    7.6213   -6.5618   16.0087 C   0  0  0  0  0  0  0  0  0  0  0  0
   10.8583   -2.6527   20.7222 C   0  0  0  0  0  0  0  0  0  0  0  0
   10.6412   -3.5089   21.7936 C   0  0  0  0  0  0  0  0  0  0  0  0
   10.4972   -3.8968   24.1589 C   0  0  0  0  0  0  0  0  0  0  0  0
    5.9260   -8.2736   16.5517 C   0  0  0  0  0  0  0  0  0  0  0  0
    3.8816   -9.1166   17.2493 C   0  0  0  0  0  0  0  0  0  0  0  0
   10.1297   -1.6575   23.2324 C   0  0  0  0  0  0  0  0  0  0  0  0
    9.4684   -1.6929   26.7263 F   0  0  0  0  0  0  0  0  0  0  0  0
    7.7963   -7.7906   17.9837 C   0  0  0  0  0  0  0  0  0  0  0  0
   10.5884   -3.0725   16.7902 O   0  0  0  0  0  0  0  0  0  0  0  0
   10.4323   -5.3494   20.3516 C   0  0  0  0  0  0  0  0  0  0  0  0
    7.1156   -7.5454   16.8218 C   0  0  0  0  0  0  0  0  0  0  0  0
   10.3885   -4.4388   19.2773 C   0  0  0  0  0  0  0  0  0  0  0  0
    4.5160   -9.3822   15.0841 C   0  0  0  0  0  0  0  0  0  0  0  0
  1  3  4  0
  1 24  4  0
  2  6  4  0
  2 15  4  0
  3  5  4  0
  3  6  4  0
  4 21  4  0
  4 29  4  0
  5 15  4  0
  5 28  1  0
  6 16  4  0
  7 18  4  0
  7 26  4  0
  8 18  1  0
  8 19  4  0
  8 22  4  0
  9 12  4  0
  9 19  4  0
 10 12  4  0
 10 22  4  0
 11 20  4  0
 11 21  4  0
 12 23  1  0
 13 20  4  0
 13 29  4  0
 14 17  4  0
 14 28  4  0
 15 25  2  0
 16 27  4  0
 17 18  4  0
 20 27  1  0
 24 27  4  0
 26 28  4  0
M  END
$$$$

 Created by Python create_sdf_string function

 29 33  0  0  0  0  0  0  0  0999 V2000
    8.8270   -7.0288   18.4251 C   0  0  0  0  0  0  0  0  0  0  0  0
    9.1576   -4.6236   15.8860 O   0  0  0  0  0  0  0  0  0  0  0  0
    9.1509   -5.9108   17.7177 C   0  0  0  0  0  0  0  0  0  0  0  0
    3.6373   -9.5349   16.0582 N   0  0  0  0  0  0  0  0  0  0  0  0
    9.9275   -4.8001   18.0438 N   0  0  0  0  0  0  0  0  0  0  0  0
    8.5908   -5.7425   16.4412 C   0  0  0  0  0  0  0  0  0  0  0  0
   10.5993   -4.8981   21.6068 C   0  0  0  0  0  0  0  0  0  0  0  0
   10.4258   -3.0106   23.0998 C   0  0  0  0  0  0  0  0  0  0  0  0
   10.2148   -3.4364   25.4200 C   0  0  0  0  0  0  0  0  0  0  0  0
    9.7853   -1.1840   24.4927 C   0  0  0  0  0  0  0  0  0  0  0  0
    5.0276   -8.5227   17.5352 C   0  0  0  0  0  0  0  0  0  0  0  0
    9.8187   -2.0895   25.5800 C   0  0  0  0  0  0  0  0  0  0  0  0
    5.6473   -8.7216   15.3158 C   0  0  0  0  0  0  0  0  0  0  0  0
   10.7581   -3.1233   19.4720 N   0  0  0  0  0  0  0  0  0  0  0  0
    9.9571   -4.0573   16.8866 C   0  0  0  0  0  0  0  0  0  0  0  0
    7.6213   -6.5618   16.0087 C   0  0  0  0  0  0  0  0  0  0  0  0
   10.8583   -2.6527   20.7222 C   0  0  0  0  0  0  0  0  0  0  0  0
   10.6412   -3.5089   21.7936 C   0  0  0  0  0  0  0  0  0  0  0  0
   10.4972   -3.8968   24.1589 C   0  0  0  0  0  0  0  0  0  0  0  0
    5.9260   -8.2736   16.5517 C   0  0  0  0  0  0  0  0  0  0  0  0
    3.8816   -9.1166   17.2493 C   0  0  0  0  0  0  0  0  0  0  0  0
   10.1297   -1.6575   23.2324 C   0  0  0  0  0  0  0  0  0  0  0  0
    9.4684   -1.6929   26.7263 F   0  0  0  0  0  0  0  0  0  0  0  0
    7.7963   -7.7906   17.9837 C   0  0  0  0  0  0  0  0  0  0  0  0
   10.5884   -3.0725   16.7902 O   0  0  0  0  0  0  0  0  0  0  0  0
   10.4323   -5.3494   20.3516 C   0  0  0  0  0  0  0  0  0  0  0  0
    7.1156   -7.5454   16.8218 C   0  0  0  0  0  0  0  0  0  0  0  0
   10.3885   -4.4388   19.2773 C   0  0  0  0  0  0  0  0  0  0  0  0
    4.5160   -9.3822   15.0841 C   0  0  0  0  0  0  0  0  0  0  0  0
  1  3  4  0
  1 24  4  0
  2  6  4  0
  2 15  4  0
  3  5  4  0
  3  6  4  0
  4 21  4  0
  4 29  4  0
  5 15  4  0
  5 28  1  0
  6 16  4  0
  7 18  4  0
  7 26  4  0
  8 18  1  0
  8 19  4  0
  8 22  4  0
  9 12  4  0
  9 19  4  0
 10 12  4  0
 10 22  4  0
 11 20  4  0
 11 21  4  0
 12 23  1  0
 13 20  4  0
 13 29  4  0
 14 17  4  0
 14 28  4  0
 15 25  2  0
 16 27  4  0
 17 18  4  0
 20 27  1  0
 24 27  4  0
 26 28  4  0
M  END
$$$$

 Created by Python create_sdf_string function

 29 33  0  0  0  0  0  0  0  0999 V2000
    8.8270   -7.0288   18.4251 C   0  0  0  0  0  0  0  0  0  0  0  0
    9.1576   -4.6236   15.8860 O   0  0  0  0  0  0  0  0  0  0  0  0
    9.1509   -5.9108   17.7177 C   0  0  0  0  0  0  0  0  0  0  0  0
    3.6373   -9.5349   16.0582 N   0  0  0  0  0  0  0  0  0  0  0  0
    9.9275   -4.8001   18.0438 N   0  0  0  0  0  0  0  0  0  0  0  0
    8.5908   -5.7425   16.4412 C   0  0  0  0  0  0  0  0  0  0  0  0
   10.5993   -4.8981   21.6068 C   0  0  0  0  0  0  0  0  0  0  0  0
   10.4258   -3.0106   23.0998 C   0  0  0  0  0  0  0  0  0  0  0  0
   10.2148   -3.4364   25.4200 C   0  0  0  0  0  0  0  0  0  0  0  0
    9.7853   -1.1840   24.4927 C   0  0  0  0  0  0  0  0  0  0  0  0
    5.0276   -8.5227   17.5352 C   0  0  0  0  0  0  0  0  0  0  0  0
    9.8187   -2.0895   25.5800 C   0  0  0  0  0  0  0  0  0  0  0  0
    5.6473   -8.7216   15.3158 C   0  0  0  0  0  0  0  0  0  0  0  0
   10.7581   -3.1233   19.4720 N   0  0  0  0  0  0  0  0  0  0  0  0
    9.9571   -4.0573   16.8866 C   0  0  0  0  0  0  0  0  0  0  0  0
    7.6213   -6.5618   16.0087 C   0  0  0  0  0  0  0  0  0  0  0  0
   10.8583   -2.6527   20.7222 C   0  0  0  0  0  0  0  0  0  0  0  0
   10.6412   -3.5089   21.7936 C   0  0  0  0  0  0  0  0  0  0  0  0
   10.4972   -3.8968   24.1589 C   0  0  0  0  0  0  0  0  0  0  0  0
    5.9260   -8.2736   16.5517 C   0  0  0  0  0  0  0  0  0  0  0  0
    3.8816   -9.1166   17.2493 C   0  0  0  0  0  0  0  0  0  0  0  0
   10.1297   -1.6575   23.2324 C   0  0  0  0  0  0  0  0  0  0  0  0
    9.4684   -1.6929   26.7263 F   0  0  0  0  0  0  0  0  0  0  0  0
    7.7963   -7.7906   17.9837 C   0  0  0  0  0  0  0  0  0  0  0  0
   10.5884   -3.0725   16.7902 O   0  0  0  0  0  0  0  0  0  0  0  0
   10.4323   -5.3494   20.3516 C   0  0  0  0  0  0  0  0  0  0  0  0
    7.1156   -7.5454   16.8218 C   0  0  0  0  0  0  0  0  0  0  0  0
   10.3885   -4.4388   19.2773 C   0  0  0  0  0  0  0  0  0  0  0  0
    4.5160   -9.3822   15.0841 C   0  0  0  0  0  0  0  0  0  0  0  0
  1  3  4  0
  1 24  4  0
  2  6  4  0
  2 15  4  0
  3  5  4  0
  3  6  4  0
  4 21  4  0
  4 29  4  0
  5 15  4  0
  5 28  1  0
  6 16  4  0
  7 18  4  0
  7 26  4  0
  8 18  1  0
  8 19  4  0
  8 22  4  0
  9 12  4  0
  9 19  4  0
 10 12  4  0
 10 22  4  0
 11 20  4  0
 11 21  4  0
 12 23  1  0
 13 20  4  0
 13 29  4  0
 14 17  4  0
 14 28  4  0
 15 25  2  0
 16 27  4  0
 17 18  4  0
 20 27  1  0
 24 27  4  0
 26 28  4  0
M  END
$$$$

 Created by Python create_sdf_string function

 29 33  0  0  0  0  0  0  0  0999 V2000
    8.8270   -7.0288   18.4251 C   0  0  0  0  0  0  0  0  0  0  0  0
    9.1576   -4.6236   15.8860 O   0  0  0  0  0  0  0  0  0  0  0  0
    9.1509   -5.9108   17.7177 C   0  0  0  0  0  0  0  0  0  0  0  0
    3.6373   -9.5349   16.0582 N   0  0  0  0  0  0  0  0  0  0  0  0
    9.9275   -4.8001   18.0438 N   0  0  0  0  0  0  0  0  0  0  0  0
    8.5908   -5.7425   16.4412 C   0  0  0  0  0  0  0  0  0  0  0  0
   10.5993   -4.8981   21.6068 C   0  0  0  0  0  0  0  0  0  0  0  0
   10.4258   -3.0106   23.0998 C   0  0  0  0  0  0  0  0  0  0  0  0
   10.2148   -3.4364   25.4200 C   0  0  0  0  0  0  0  0  0  0  0  0
    9.7853   -1.1840   24.4927 C   0  0  0  0  0  0  0  0  0  0  0  0
    5.0276   -8.5227   17.5352 C   0  0  0  0  0  0  0  0  0  0  0  0
    9.8187   -2.0895   25.5800 C   0  0  0  0  0  0  0  0  0  0  0  0
    5.6473   -8.7216   15.3158 C   0  0  0  0  0  0  0  0  0  0  0  0
   10.7581   -3.1233   19.4720 N   0  0  0  0  0  0  0  0  0  0  0  0
    9.9571   -4.0573   16.8866 C   0  0  0  0  0  0  0  0  0  0  0  0
    7.6213   -6.5618   16.0087 C   0  0  0  0  0  0  0  0  0  0  0  0
   10.8583   -2.6527   20.7222 C   0  0  0  0  0  0  0  0  0  0  0  0
   10.6412   -3.5089   21.7936 C   0  0  0  0  0  0  0  0  0  0  0  0
   10.4972   -3.8968   24.1589 C   0  0  0  0  0  0  0  0  0  0  0  0
    5.9260   -8.2736   16.5517 C   0  0  0  0  0  0  0  0  0  0  0  0
    3.8816   -9.1166   17.2493 C   0  0  0  0  0  0  0  0  0  0  0  0
   10.1297   -1.6575   23.2324 C   0  0  0  0  0  0  0  0  0  0  0  0
    9.4684   -1.6929   26.7263 F   0  0  0  0  0  0  0  0  0  0  0  0
    7.7963   -7.7906   17.9837 C   0  0  0  0  0  0  0  0  0  0  0  0
   10.5884   -3.0725   16.7902 O   0  0  0  0  0  0  0  0  0  0  0  0
   10.4323   -5.3494   20.3516 C   0  0  0  0  0  0  0  0  0  0  0  0
    7.1156   -7.5454   16.8218 C   0  0  0  0  0  0  0  0  0  0  0  0
   10.3885   -4.4388   19.2773 C   0  0  0  0  0  0  0  0  0  0  0  0
    4.5160   -9.3822   15.0841 C   0  0  0  0  0  0  0  0  0  0  0  0
  1  3  4  0
  1 24  4  0
  2  6  4  0
  2 15  4  0
  3  5  4  0
  3  6  4  0
  4 21  4  0
  4 29  4  0
  5 15  4  0
  5 28  1  0
  6 16  4  0
  7 18  4  0
  7 26  4  0
  8 18  1  0
  8 19  4  0
  8 22  4  0
  9 12  4  0
  9 19  4  0
 10 12  4  0
 10 22  4  0
 11 20  4  0
 11 21  4  0
 12 23  1  0
 13 20  4  0
 13 29  4  0
 14 17  4  0
 14 28  4  0
 15 25  2  0
 16 27  4  0
 17 18  4  0
 20 27  1  0
 24 27  4  0
 26 28  4  0
M  END
$$$$

 Created by Python create_sdf_string function

 29 33  0  0  0  0  0  0  0  0999 V2000
    8.8270   -7.0288   18.4251 C   0  0  0  0  0  0  0  0  0  0  0  0
    9.1576   -4.6236   15.8860 O   0  0  0  0  0  0  0  0  0  0  0  0
    9.1509   -5.9108   17.7177 C   0  0  0  0  0  0  0  0  0  0  0  0
    3.6373   -9.5349   16.0582 N   0  0  0  0  0  0  0  0  0  0  0  0
    9.9275   -4.8001   18.0438 N   0  0  0  0  0  0  0  0  0  0  0  0
    8.5908   -5.7425   16.4412 C   0  0  0  0  0  0  0  0  0  0  0  0
   10.5993   -4.8981   21.6068 C   0  0  0  0  0  0  0  0  0  0  0  0
   10.4258   -3.0106   23.0998 C   0  0  0  0  0  0  0  0  0  0  0  0
   10.2148   -3.4364   25.4200 C   0  0  0  0  0  0  0  0  0  0  0  0
    9.7853   -1.1840   24.4927 C   0  0  0  0  0  0  0  0  0  0  0  0
    5.0276   -8.5227   17.5352 C   0  0  0  0  0  0  0  0  0  0  0  0
    9.8187   -2.0895   25.5800 C   0  0  0  0  0  0  0  0  0  0  0  0
    5.6473   -8.7216   15.3158 C   0  0  0  0  0  0  0  0  0  0  0  0
   10.7581   -3.1233   19.4720 N   0  0  0  0  0  0  0  0  0  0  0  0
    9.9571   -4.0573   16.8866 C   0  0  0  0  0  0  0  0  0  0  0  0
    7.6213   -6.5618   16.0087 C   0  0  0  0  0  0  0  0  0  0  0  0
   10.8583   -2.6527   20.7222 C   0  0  0  0  0  0  0  0  0  0  0  0
   10.6412   -3.5089   21.7936 C   0  0  0  0  0  0  0  0  0  0  0  0
   10.4972   -3.8968   24.1589 C   0  0  0  0  0  0  0  0  0  0  0  0
    5.9260   -8.2736   16.5517 C   0  0  0  0  0  0  0  0  0  0  0  0
    3.8816   -9.1166   17.2493 C   0  0  0  0  0  0  0  0  0  0  0  0
   10.1297   -1.6575   23.2324 C   0  0  0  0  0  0  0  0  0  0  0  0
    9.4684   -1.6929   26.7263 F   0  0  0  0  0  0  0  0  0  0  0  0
    7.7963   -7.7906   17.9837 C   0  0  0  0  0  0  0  0  0  0  0  0
   10.5884   -3.0725   16.7902 O   0  0  0  0  0  0  0  0  0  0  0  0
   10.4323   -5.3494   20.3516 C   0  0  0  0  0  0  0  0  0  0  0  0
    7.1156   -7.5454   16.8218 C   0  0  0  0  0  0  0  0  0  0  0  0
   10.3885   -4.4388   19.2773 C   0  0  0  0  0  0  0  0  0  0  0  0
    4.5160   -9.3822   15.0841 C   0  0  0  0  0  0  0  0  0  0  0  0
  1  3  4  0
  1 24  4  0
  2  6  4  0
  2 15  4  0
  3  5  4  0
  3  6  4  0
  4 21  4  0
  4 29  4  0
  5 15  4  0
  5 28  1  0
  6 16  4  0
  7 18  4  0
  7 26  4  0
  8 18  1  0
  8 19  4  0
  8 22  4  0
  9 12  4  0
  9 19  4  0
 10 12  4  0
 10 22  4  0
 11 20  4  0
 11 21  4  0
 12 23  1  0
 13 20  4  0
 13 29  4  0
 14 17  4  0
 14 28  4  0
 15 25  2  0
 16 27  4  0
 17 18  4  0
 20 27  1  0
 24 27  4  0
 26 28  4  0
M  END
$$$$

 Created by Python create_sdf_string function

 29 33  0  0  0  0  0  0  0  0999 V2000
    8.8270   -7.0288   18.4251 C   0  0  0  0  0  0  0  0  0  0  0  0
    9.1576   -4.6236   15.8860 O   0  0  0  0  0  0  0  0  0  0  0  0
    9.1509   -5.9108   17.7177 C   0  0  0  0  0  0  0  0  0  0  0  0
    3.6373   -9.5349   16.0582 N   0  0  0  0  0  0  0  0  0  0  0  0
    9.9275   -4.8001   18.0438 N   0  0  0  0  0  0  0  0  0  0  0  0
    8.5908   -5.7425   16.4412 C   0  0  0  0  0  0  0  0  0  0  0  0
   10.5993   -4.8981   21.6068 C   0  0  0  0  0  0  0  0  0  0  0  0
   10.4258   -3.0106   23.0998 C   0  0  0  0  0  0  0  0  0  0  0  0
   10.2148   -3.4364   25.4200 C   0  0  0  0  0  0  0  0  0  0  0  0
    9.7853   -1.1840   24.4927 C   0  0  0  0  0  0  0  0  0  0  0  0
    5.0276   -8.5227   17.5352 C   0  0  0  0  0  0  0  0  0  0  0  0
    9.8187   -2.0895   25.5800 C   0  0  0  0  0  0  0  0  0  0  0  0
    5.6473   -8.7216   15.3158 C   0  0  0  0  0  0  0  0  0  0  0  0
   10.7581   -3.1233   19.4720 N   0  0  0  0  0  0  0  0  0  0  0  0
    9.9571   -4.0573   16.8866 C   0  0  0  0  0  0  0  0  0  0  0  0
    7.6213   -6.5618   16.0087 C   0  0  0  0  0  0  0  0  0  0  0  0
   10.8583   -2.6527   20.7222 C   0  0  0  0  0  0  0  0  0  0  0  0
   10.6412   -3.5089   21.7936 C   0  0  0  0  0  0  0  0  0  0  0  0
   10.4972   -3.8968   24.1589 C   0  0  0  0  0  0  0  0  0  0  0  0
    5.9260   -8.2736   16.5517 C   0  0  0  0  0  0  0  0  0  0  0  0
    3.8816   -9.1166   17.2493 C   0  0  0  0  0  0  0  0  0  0  0  0
   10.1297   -1.6575   23.2324 C   0  0  0  0  0  0  0  0  0  0  0  0
    9.4684   -1.6929   26.7263 F   0  0  0  0  0  0  0  0  0  0  0  0
    7.7963   -7.7906   17.9837 C   0  0  0  0  0  0  0  0  0  0  0  0
   10.5884   -3.0725   16.7902 O   0  0  0  0  0  0  0  0  0  0  0  0
   10.4323   -5.3494   20.3516 C   0  0  0  0  0  0  0  0  0  0  0  0
    7.1156   -7.5454   16.8218 C   0  0  0  0  0  0  0  0  0  0  0  0
   10.3885   -4.4388   19.2773 C   0  0  0  0  0  0  0  0  0  0  0  0
    4.5160   -9.3822   15.0841 C   0  0  0  0  0  0  0  0  0  0  0  0
  1  3  4  0
  1 24  4  0
  2  6  4  0
  2 15  4  0
  3  5  4  0
  3  6  4  0
  4 21  4  0
  4 29  4  0
  5 15  4  0
  5 28  1  0
  6 16  4  0
  7 18  4  0
  7 26  4  0
  8 18  1  0
  8 19  4  0
  8 22  4  0
  9 12  4  0
  9 19  4  0
 10 12  4  0
 10 22  4  0
 11 20  4  0
 11 21  4  0
 12 23  1  0
 13 20  4  0
 13 29  4  0
 14 17  4  0
 14 28  4  0
 15 25  2  0
 16 27  4  0
 17 18  4  0
 20 27  1  0
 24 27  4  0
 26 28  4  0
M  END
$$$$

 Created by Python create_sdf_string function

 29 33  0  0  0  0  0  0  0  0999 V2000
    8.8270   -7.0288   18.4251 C   0  0  0  0  0  0  0  0  0  0  0  0
    9.1576   -4.6236   15.8860 O   0  0  0  0  0  0  0  0  0  0  0  0
    9.1509   -5.9108   17.7177 C   0  0  0  0  0  0  0  0  0  0  0  0
    3.6373   -9.5349   16.0582 N   0  0  0  0  0  0  0  0  0  0  0  0
    9.9275   -4.8001   18.0438 N   0  0  0  0  0  0  0  0  0  0  0  0
    8.5908   -5.7425   16.4412 C   0  0  0  0  0  0  0  0  0  0  0  0
   10.5993   -4.8981   21.6068 C   0  0  0  0  0  0  0  0  0  0  0  0
   10.4258   -3.0106   23.0998 C   0  0  0  0  0  0  0  0  0  0  0  0
   10.2148   -3.4364   25.4200 C   0  0  0  0  0  0  0  0  0  0  0  0
    9.7853   -1.1840   24.4927 C   0  0  0  0  0  0  0  0  0  0  0  0
    5.0276   -8.5227   17.5352 C   0  0  0  0  0  0  0  0  0  0  0  0
    9.8187   -2.0895   25.5800 C   0  0  0  0  0  0  0  0  0  0  0  0
    5.6473   -8.7216   15.3158 C   0  0  0  0  0  0  0  0  0  0  0  0
   10.7581   -3.1233   19.4720 N   0  0  0  0  0  0  0  0  0  0  0  0
    9.9571   -4.0573   16.8866 C   0  0  0  0  0  0  0  0  0  0  0  0
    7.6213   -6.5618   16.0087 C   0  0  0  0  0  0  0  0  0  0  0  0
   10.8583   -2.6527   20.7222 C   0  0  0  0  0  0  0  0  0  0  0  0
   10.6412   -3.5089   21.7936 C   0  0  0  0  0  0  0  0  0  0  0  0
   10.4972   -3.8968   24.1589 C   0  0  0  0  0  0  0  0  0  0  0  0
    5.9260   -8.2736   16.5517 C   0  0  0  0  0  0  0  0  0  0  0  0
    3.8816   -9.1166   17.2493 C   0  0  0  0  0  0  0  0  0  0  0  0
   10.1297   -1.6575   23.2324 C   0  0  0  0  0  0  0  0  0  0  0  0
    9.4684   -1.6929   26.7263 F   0  0  0  0  0  0  0  0  0  0  0  0
    7.7963   -7.7906   17.9837 C   0  0  0  0  0  0  0  0  0  0  0  0
   10.5884   -3.0725   16.7902 O   0  0  0  0  0  0  0  0  0  0  0  0
   10.4323   -5.3494   20.3516 C   0  0  0  0  0  0  0  0  0  0  0  0
    7.1156   -7.5454   16.8218 C   0  0  0  0  0  0  0  0  0  0  0  0
   10.3885   -4.4388   19.2773 C   0  0  0  0  0  0  0  0  0  0  0  0
    4.5160   -9.3822   15.0841 C   0  0  0  0  0  0  0  0  0  0  0  0
  1  3  4  0
  1 24  4  0
  2  6  4  0
  2 15  4  0
  3  5  4  0
  3  6  4  0
  4 21  4  0
  4 29  4  0
  5 15  4  0
  5 28  1  0
  6 16  4  0
  7 18  4  0
  7 26  4  0
  8 18  1  0
  8 19  4  0
  8 22  4  0
  9 12  4  0
  9 19  4  0
 10 12  4  0
 10 22  4  0
 11 20  4  0
 11 21  4  0
 12 23  1  0
 13 20  4  0
 13 29  4  0
 14 17  4  0
 14 28  4  0
 15 25  2  0
 16 27  4  0
 17 18  4  0
 20 27  1  0
 24 27  4  0
 26 28  4  0
M  END
$$$$

 Created by Python create_sdf_string function

 29 33  0  0  0  0  0  0  0  0999 V2000
    8.8270   -7.0288   18.4251 C   0  0  0  0  0  0  0  0  0  0  0  0
    9.1576   -4.6236   15.8860 O   0  0  0  0  0  0  0  0  0  0  0  0
    9.1509   -5.9108   17.7177 C   0  0  0  0  0  0  0  0  0  0  0  0
    3.6373   -9.5349   16.0582 N   0  0  0  0  0  0  0  0  0  0  0  0
    9.9275   -4.8001   18.0438 N   0  0  0  0  0  0  0  0  0  0  0  0
    8.5908   -5.7425   16.4412 C   0  0  0  0  0  0  0  0  0  0  0  0
   10.5993   -4.8981   21.6068 C   0  0  0  0  0  0  0  0  0  0  0  0
   10.4258   -3.0106   23.0998 C   0  0  0  0  0  0  0  0  0  0  0  0
   10.2148   -3.4364   25.4200 C   0  0  0  0  0  0  0  0  0  0  0  0
    9.7853   -1.1840   24.4927 C   0  0  0  0  0  0  0  0  0  0  0  0
    5.0276   -8.5227   17.5352 C   0  0  0  0  0  0  0  0  0  0  0  0
    9.8187   -2.0895   25.5800 C   0  0  0  0  0  0  0  0  0  0  0  0
    5.6473   -8.7216   15.3158 C   0  0  0  0  0  0  0  0  0  0  0  0
   10.7581   -3.1233   19.4720 N   0  0  0  0  0  0  0  0  0  0  0  0
    9.9571   -4.0573   16.8866 C   0  0  0  0  0  0  0  0  0  0  0  0
    7.6213   -6.5618   16.0087 C   0  0  0  0  0  0  0  0  0  0  0  0
   10.8583   -2.6527   20.7222 C   0  0  0  0  0  0  0  0  0  0  0  0
   10.6412   -3.5089   21.7936 C   0  0  0  0  0  0  0  0  0  0  0  0
   10.4972   -3.8968   24.1589 C   0  0  0  0  0  0  0  0  0  0  0  0
    5.9260   -8.2736   16.5517 C   0  0  0  0  0  0  0  0  0  0  0  0
    3.8816   -9.1166   17.2493 C   0  0  0  0  0  0  0  0  0  0  0  0
   10.1297   -1.6575   23.2324 C   0  0  0  0  0  0  0  0  0  0  0  0
    9.4684   -1.6929   26.7263 F   0  0  0  0  0  0  0  0  0  0  0  0
    7.7963   -7.7906   17.9837 C   0  0  0  0  0  0  0  0  0  0  0  0
   10.5884   -3.0725   16.7902 O   0  0  0  0  0  0  0  0  0  0  0  0
   10.4323   -5.3494   20.3516 C   0  0  0  0  0  0  0  0  0  0  0  0
    7.1156   -7.5454   16.8218 C   0  0  0  0  0  0  0  0  0  0  0  0
   10.3885   -4.4388   19.2773 C   0  0  0  0  0  0  0  0  0  0  0  0
    4.5160   -9.3822   15.0841 C   0  0  0  0  0  0  0  0  0  0  0  0
  1  3  4  0
  1 24  4  0
  2  6  4  0
  2 15  4  0
  3  5  4  0
  3  6  4  0
  4 21  4  0
  4 29  4  0
  5 15  4  0
  5 28  1  0
  6 16  4  0
  7 18  4  0
  7 26  4  0
  8 18  1  0
  8 19  4  0
  8 22  4  0
  9 12  4  0
  9 19  4  0
 10 12  4  0
 10 22  4  0
 11 20  4  0
 11 21  4  0
 12 23  1  0
 13 20  4  0
 13 29  4  0
 14 17  4  0
 14 28  4  0
 15 25  2  0
 16 27  4  0
 17 18  4  0
 20 27  1  0
 24 27  4  0
 26 28  4  0
M  END
$$$$

 Created by Python create_sdf_string function

 29 33  0  0  0  0  0  0  0  0999 V2000
    8.8270   -7.0288   18.4251 C   0  0  0  0  0  0  0  0  0  0  0  0
    9.1576   -4.6236   15.8860 O   0  0  0  0  0  0  0  0  0  0  0  0
    9.1509   -5.9108   17.7177 C   0  0  0  0  0  0  0  0  0  0  0  0
    3.6373   -9.5349   16.0582 N   0  0  0  0  0  0  0  0  0  0  0  0
    9.9275   -4.8001   18.0438 N   0  0  0  0  0  0  0  0  0  0  0  0
    8.5908   -5.7425   16.4412 C   0  0  0  0  0  0  0  0  0  0  0  0
   10.5993   -4.8981   21.6068 C   0  0  0  0  0  0  0  0  0  0  0  0
   10.4258   -3.0106   23.0998 C   0  0  0  0  0  0  0  0  0  0  0  0
   10.2148   -3.4364   25.4200 C   0  0  0  0  0  0  0  0  0  0  0  0
    9.7853   -1.1840   24.4927 C   0  0  0  0  0  0  0  0  0  0  0  0
    5.0276   -8.5227   17.5352 C   0  0  0  0  0  0  0  0  0  0  0  0
    9.8187   -2.0895   25.5800 C   0  0  0  0  0  0  0  0  0  0  0  0
    5.6473   -8.7216   15.3158 C   0  0  0  0  0  0  0  0  0  0  0  0
   10.7581   -3.1233   19.4720 N   0  0  0  0  0  0  0  0  0  0  0  0
    9.9571   -4.0573   16.8866 C   0  0  0  0  0  0  0  0  0  0  0  0
    7.6213   -6.5618   16.0087 C   0  0  0  0  0  0  0  0  0  0  0  0
   10.8583   -2.6527   20.7222 C   0  0  0  0  0  0  0  0  0  0  0  0
   10.6412   -3.5089   21.7936 C   0  0  0  0  0  0  0  0  0  0  0  0
   10.4972   -3.8968   24.1589 C   0  0  0  0  0  0  0  0  0  0  0  0
    5.9260   -8.2736   16.5517 C   0  0  0  0  0  0  0  0  0  0  0  0
    3.8816   -9.1166   17.2493 C   0  0  0  0  0  0  0  0  0  0  0  0
   10.1297   -1.6575   23.2324 C   0  0  0  0  0  0  0  0  0  0  0  0
    9.4684   -1.6929   26.7263 F   0  0  0  0  0  0  0  0  0  0  0  0
    7.7963   -7.7906   17.9837 C   0  0  0  0  0  0  0  0  0  0  0  0
   10.5884   -3.0725   16.7902 O   0  0  0  0  0  0  0  0  0  0  0  0
   10.4323   -5.3494   20.3516 C   0  0  0  0  0  0  0  0  0  0  0  0
    7.1156   -7.5454   16.8218 C   0  0  0  0  0  0  0  0  0  0  0  0
   10.3885   -4.4388   19.2773 C   0  0  0  0  0  0  0  0  0  0  0  0
    4.5160   -9.3822   15.0841 C   0  0  0  0  0  0  0  0  0  0  0  0
  1  3  4  0
  1 24  4  0
  2  6  4  0
  2 15  4  0
  3  5  4  0
  3  6  4  0
  4 21  4  0
  4 29  4  0
  5 15  4  0
  5 28  1  0
  6 16  4  0
  7 18  4  0
  7 26  4  0
  8 18  1  0
  8 19  4  0
  8 22  4  0
  9 12  4  0
  9 19  4  0
 10 12  4  0
 10 22  4  0
 11 20  4  0
 11 21  4  0
 12 23  1  0
 13 20  4  0
 13 29  4  0
 14 17  4  0
 14 28  4  0
 15 25  2  0
 16 27  4  0
 17 18  4  0
 20 27  1  0
 24 27  4  0
 26 28  4  0
M  END
$$$$

 Created by Python create_sdf_string function

 29 33  0  0  0  0  0  0  0  0999 V2000
    8.8270   -7.0288   18.4251 C   0  0  0  0  0  0  0  0  0  0  0  0
    9.1576   -4.6236   15.8860 O   0  0  0  0  0  0  0  0  0  0  0  0
    9.1509   -5.9108   17.7177 C   0  0  0  0  0  0  0  0  0  0  0  0
    3.6373   -9.5349   16.0582 N   0  0  0  0  0  0  0  0  0  0  0  0
    9.9275   -4.8001   18.0438 N   0  0  0  0  0  0  0  0  0  0  0  0
    8.5908   -5.7425   16.4412 C   0  0  0  0  0  0  0  0  0  0  0  0
   10.5993   -4.8981   21.6068 C   0  0  0  0  0  0  0  0  0  0  0  0
   10.4258   -3.0106   23.0998 C   0  0  0  0  0  0  0  0  0  0  0  0
   10.2148   -3.4364   25.4200 C   0  0  0  0  0  0  0  0  0  0  0  0
    9.7853   -1.1840   24.4927 C   0  0  0  0  0  0  0  0  0  0  0  0
    5.0276   -8.5227   17.5352 C   0  0  0  0  0  0  0  0  0  0  0  0
    9.8187   -2.0895   25.5800 C   0  0  0  0  0  0  0  0  0  0  0  0
    5.6473   -8.7216   15.3158 C   0  0  0  0  0  0  0  0  0  0  0  0
   10.7581   -3.1233   19.4720 N   0  0  0  0  0  0  0  0  0  0  0  0
    9.9571   -4.0573   16.8866 C   0  0  0  0  0  0  0  0  0  0  0  0
    7.6213   -6.5618   16.0087 C   0  0  0  0  0  0  0  0  0  0  0  0
   10.8583   -2.6527   20.7222 C   0  0  0  0  0  0  0  0  0  0  0  0
   10.6412   -3.5089   21.7936 C   0  0  0  0  0  0  0  0  0  0  0  0
   10.4972   -3.8968   24.1589 C   0  0  0  0  0  0  0  0  0  0  0  0
    5.9260   -8.2736   16.5517 C   0  0  0  0  0  0  0  0  0  0  0  0
    3.8816   -9.1166   17.2493 C   0  0  0  0  0  0  0  0  0  0  0  0
   10.1297   -1.6575   23.2324 C   0  0  0  0  0  0  0  0  0  0  0  0
    9.4684   -1.6929   26.7263 F   0  0  0  0  0  0  0  0  0  0  0  0
    7.7963   -7.7906   17.9837 C   0  0  0  0  0  0  0  0  0  0  0  0
   10.5884   -3.0725   16.7902 O   0  0  0  0  0  0  0  0  0  0  0  0
   10.4323   -5.3494   20.3516 C   0  0  0  0  0  0  0  0  0  0  0  0
    7.1156   -7.5454   16.8218 C   0  0  0  0  0  0  0  0  0  0  0  0
   10.3885   -4.4388   19.2773 C   0  0  0  0  0  0  0  0  0  0  0  0
    4.5160   -9.3822   15.0841 C   0  0  0  0  0  0  0  0  0  0  0  0
  1  3  4  0
  1 24  4  0
  2  6  4  0
  2 15  4  0
  3  5  4  0
  3  6  4  0
  4 21  4  0
  4 29  4  0
  5 15  4  0
  5 28  1  0
  6 16  4  0
  7 18  4  0
  7 26  4  0
  8 18  1  0
  8 19  4  0
  8 22  4  0
  9 12  4  0
  9 19  4  0
 10 12  4  0
 10 22  4  0
 11 20  4  0
 11 21  4  0
 12 23  1  0
 13 20  4  0
 13 29  4  0
 14 17  4  0
 14 28  4  0
 15 25  2  0
 16 27  4  0
 17 18  4  0
 20 27  1  0
 24 27  4  0
 26 28  4  0
M  END
$$$$

 Created by Python create_sdf_string function

 29 33  0  0  0  0  0  0  0  0999 V2000
    8.8270   -7.0288   18.4251 C   0  0  0  0  0  0  0  0  0  0  0  0
    9.1576   -4.6236   15.8860 O   0  0  0  0  0  0  0  0  0  0  0  0
    9.1509   -5.9108   17.7177 C   0  0  0  0  0  0  0  0  0  0  0  0
    3.6373   -9.5349   16.0582 N   0  0  0  0  0  0  0  0  0  0  0  0
    9.9275   -4.8001   18.0438 N   0  0  0  0  0  0  0  0  0  0  0  0
    8.5908   -5.7425   16.4412 C   0  0  0  0  0  0  0  0  0  0  0  0
   10.5993   -4.8981   21.6068 C   0  0  0  0  0  0  0  0  0  0  0  0
   10.4258   -3.0106   23.0998 C   0  0  0  0  0  0  0  0  0  0  0  0
   10.2148   -3.4364   25.4200 C   0  0  0  0  0  0  0  0  0  0  0  0
    9.7853   -1.1840   24.4927 C   0  0  0  0  0  0  0  0  0  0  0  0
    5.0276   -8.5227   17.5352 C   0  0  0  0  0  0  0  0  0  0  0  0
    9.8187   -2.0895   25.5800 C   0  0  0  0  0  0  0  0  0  0  0  0
    5.6473   -8.7216   15.3158 C   0  0  0  0  0  0  0  0  0  0  0  0
   10.7581   -3.1233   19.4720 N   0  0  0  0  0  0  0  0  0  0  0  0
    9.9571   -4.0573   16.8866 C   0  0  0  0  0  0  0  0  0  0  0  0
    7.6213   -6.5618   16.0087 C   0  0  0  0  0  0  0  0  0  0  0  0
   10.8583   -2.6527   20.7222 C   0  0  0  0  0  0  0  0  0  0  0  0
   10.6412   -3.5089   21.7936 C   0  0  0  0  0  0  0  0  0  0  0  0
   10.4972   -3.8968   24.1589 C   0  0  0  0  0  0  0  0  0  0  0  0
    5.9260   -8.2736   16.5517 C   0  0  0  0  0  0  0  0  0  0  0  0
    3.8816   -9.1166   17.2493 C   0  0  0  0  0  0  0  0  0  0  0  0
   10.1297   -1.6575   23.2324 C   0  0  0  0  0  0  0  0  0  0  0  0
    9.4684   -1.6929   26.7263 F   0  0  0  0  0  0  0  0  0  0  0  0
    7.7963   -7.7906   17.9837 C   0  0  0  0  0  0  0  0  0  0  0  0
   10.5884   -3.0725   16.7902 O   0  0  0  0  0  0  0  0  0  0  0  0
   10.4323   -5.3494   20.3516 C   0  0  0  0  0  0  0  0  0  0  0  0
    7.1156   -7.5454   16.8218 C   0  0  0  0  0  0  0  0  0  0  0  0
   10.3885   -4.4388   19.2773 C   0  0  0  0  0  0  0  0  0  0  0  0
    4.5160   -9.3822   15.0841 C   0  0  0  0  0  0  0  0  0  0  0  0
  1  3  4  0
  1 24  4  0
  2  6  4  0
  2 15  4  0
  3  5  4  0
  3  6  4  0
  4 21  4  0
  4 29  4  0
  5 15  4  0
  5 28  1  0
  6 16  4  0
  7 18  4  0
  7 26  4  0
  8 18  1  0
  8 19  4  0
  8 22  4  0
  9 12  4  0
  9 19  4  0
 10 12  4  0
 10 22  4  0
 11 20  4  0
 11 21  4  0
 12 23  1  0
 13 20  4  0
 13 29  4  0
 14 17  4  0
 14 28  4  0
 15 25  2  0
 16 27  4  0
 17 18  4  0
 20 27  1  0
 24 27  4  0
 26 28  4  0
M  END
$$$$

 Created by Python create_sdf_string function

 29 33  0  0  0  0  0  0  0  0999 V2000
    8.8270   -7.0288   18.4251 C   0  0  0  0  0  0  0  0  0  0  0  0
    9.1576   -4.6236   15.8860 O   0  0  0  0  0  0  0  0  0  0  0  0
    9.1509   -5.9108   17.7177 C   0  0  0  0  0  0  0  0  0  0  0  0
    3.6373   -9.5349   16.0582 N   0  0  0  0  0  0  0  0  0  0  0  0
    9.9275   -4.8001   18.0438 N   0  0  0  0  0  0  0  0  0  0  0  0
    8.5908   -5.7425   16.4412 C   0  0  0  0  0  0  0  0  0  0  0  0
   10.5993   -4.8981   21.6068 C   0  0  0  0  0  0  0  0  0  0  0  0
   10.4258   -3.0106   23.0998 C   0  0  0  0  0  0  0  0  0  0  0  0
   10.2148   -3.4364   25.4200 C   0  0  0  0  0  0  0  0  0  0  0  0
    9.7853   -1.1840   24.4927 C   0  0  0  0  0  0  0  0  0  0  0  0
    5.0276   -8.5227   17.5352 C   0  0  0  0  0  0  0  0  0  0  0  0
    9.8187   -2.0895   25.5800 C   0  0  0  0  0  0  0  0  0  0  0  0
    5.6473   -8.7216   15.3158 C   0  0  0  0  0  0  0  0  0  0  0  0
   10.7581   -3.1233   19.4720 N   0  0  0  0  0  0  0  0  0  0  0  0
    9.9571   -4.0573   16.8866 C   0  0  0  0  0  0  0  0  0  0  0  0
    7.6213   -6.5618   16.0087 C   0  0  0  0  0  0  0  0  0  0  0  0
   10.8583   -2.6527   20.7222 C   0  0  0  0  0  0  0  0  0  0  0  0
   10.6412   -3.5089   21.7936 C   0  0  0  0  0  0  0  0  0  0  0  0
   10.4972   -3.8968   24.1589 C   0  0  0  0  0  0  0  0  0  0  0  0
    5.9260   -8.2736   16.5517 C   0  0  0  0  0  0  0  0  0  0  0  0
    3.8816   -9.1166   17.2493 C   0  0  0  0  0  0  0  0  0  0  0  0
   10.1297   -1.6575   23.2324 C   0  0  0  0  0  0  0  0  0  0  0  0
    9.4684   -1.6929   26.7263 F   0  0  0  0  0  0  0  0  0  0  0  0
    7.7963   -7.7906   17.9837 C   0  0  0  0  0  0  0  0  0  0  0  0
   10.5884   -3.0725   16.7902 O   0  0  0  0  0  0  0  0  0  0  0  0
   10.4323   -5.3494   20.3516 C   0  0  0  0  0  0  0  0  0  0  0  0
    7.1156   -7.5454   16.8218 C   0  0  0  0  0  0  0  0  0  0  0  0
   10.3885   -4.4388   19.2773 C   0  0  0  0  0  0  0  0  0  0  0  0
    4.5160   -9.3822   15.0841 C   0  0  0  0  0  0  0  0  0  0  0  0
  1  3  4  0
  1 24  4  0
  2  6  4  0
  2 15  4  0
  3  5  4  0
  3  6  4  0
  4 21  4  0
  4 29  4  0
  5 15  4  0
  5 28  1  0
  6 16  4  0
  7 18  4  0
  7 26  4  0
  8 18  1  0
  8 19  4  0
  8 22  4  0
  9 12  4  0
  9 19  4  0
 10 12  4  0
 10 22  4  0
 11 20  4  0
 11 21  4  0
 12 23  1  0
 13 20  4  0
 13 29  4  0
 14 17  4  0
 14 28  4  0
 15 25  2  0
 16 27  4  0
 17 18  4  0
 20 27  1  0
 24 27  4  0
 26 28  4  0
M  END
$$$$

 Created by Python create_sdf_string function

 29 33  0  0  0  0  0  0  0  0999 V2000
    8.8270   -7.0288   18.4251 C   0  0  0  0  0  0  0  0  0  0  0  0
    9.1576   -4.6236   15.8860 O   0  0  0  0  0  0  0  0  0  0  0  0
    9.1509   -5.9108   17.7177 C   0  0  0  0  0  0  0  0  0  0  0  0
    3.6373   -9.5349   16.0582 N   0  0  0  0  0  0  0  0  0  0  0  0
    9.9275   -4.8001   18.0438 N   0  0  0  0  0  0  0  0  0  0  0  0
    8.5908   -5.7425   16.4412 C   0  0  0  0  0  0  0  0  0  0  0  0
   10.5993   -4.8981   21.6068 C   0  0  0  0  0  0  0  0  0  0  0  0
   10.4258   -3.0106   23.0998 C   0  0  0  0  0  0  0  0  0  0  0  0
   10.2148   -3.4364   25.4200 C   0  0  0  0  0  0  0  0  0  0  0  0
    9.7853   -1.1840   24.4927 C   0  0  0  0  0  0  0  0  0  0  0  0
    5.0276   -8.5227   17.5352 C   0  0  0  0  0  0  0  0  0  0  0  0
    9.8187   -2.0895   25.5800 C   0  0  0  0  0  0  0  0  0  0  0  0
    5.6473   -8.7216   15.3158 C   0  0  0  0  0  0  0  0  0  0  0  0
   10.7581   -3.1233   19.4720 N   0  0  0  0  0  0  0  0  0  0  0  0
    9.9571   -4.0573   16.8866 C   0  0  0  0  0  0  0  0  0  0  0  0
    7.6213   -6.5618   16.0087 C   0  0  0  0  0  0  0  0  0  0  0  0
   10.8583   -2.6527   20.7222 C   0  0  0  0  0  0  0  0  0  0  0  0
   10.6412   -3.5089   21.7936 C   0  0  0  0  0  0  0  0  0  0  0  0
   10.4972   -3.8968   24.1589 C   0  0  0  0  0  0  0  0  0  0  0  0
    5.9260   -8.2736   16.5517 C   0  0  0  0  0  0  0  0  0  0  0  0
    3.8816   -9.1166   17.2493 C   0  0  0  0  0  0  0  0  0  0  0  0
   10.1297   -1.6575   23.2324 C   0  0  0  0  0  0  0  0  0  0  0  0
    9.4684   -1.6929   26.7263 F   0  0  0  0  0  0  0  0  0  0  0  0
    7.7963   -7.7906   17.9837 C   0  0  0  0  0  0  0  0  0  0  0  0
   10.5884   -3.0725   16.7902 O   0  0  0  0  0  0  0  0  0  0  0  0
   10.4323   -5.3494   20.3516 C   0  0  0  0  0  0  0  0  0  0  0  0
    7.1156   -7.5454   16.8218 C   0  0  0  0  0  0  0  0  0  0  0  0
   10.3885   -4.4388   19.2773 C   0  0  0  0  0  0  0  0  0  0  0  0
    4.5160   -9.3822   15.0841 C   0  0  0  0  0  0  0  0  0  0  0  0
  1  3  4  0
  1 24  4  0
  2  6  4  0
  2 15  4  0
  3  5  4  0
  3  6  4  0
  4 21  4  0
  4 29  4  0
  5 15  4  0
  5 28  1  0
  6 16  4  0
  7 18  4  0
  7 26  4  0
  8 18  1  0
  8 19  4  0
  8 22  4  0
  9 12  4  0
  9 19  4  0
 10 12  4  0
 10 22  4  0
 11 20  4  0
 11 21  4  0
 12 23  1  0
 13 20  4  0
 13 29  4  0
 14 17  4  0
 14 28  4  0
 15 25  2  0
 16 27  4  0
 17 18  4  0
 20 27  1  0
 24 27  4  0
 26 28  4  0
M  END
$$$$

 Created by Python create_sdf_string function

 29 33  0  0  0  0  0  0  0  0999 V2000
    8.8270   -7.0288   18.4251 C   0  0  0  0  0  0  0  0  0  0  0  0
    9.1576   -4.6236   15.8860 O   0  0  0  0  0  0  0  0  0  0  0  0
    9.1509   -5.9108   17.7177 C   0  0  0  0  0  0  0  0  0  0  0  0
    3.6373   -9.5349   16.0582 N   0  0  0  0  0  0  0  0  0  0  0  0
    9.9275   -4.8001   18.0438 N   0  0  0  0  0  0  0  0  0  0  0  0
    8.5908   -5.7425   16.4412 C   0  0  0  0  0  0  0  0  0  0  0  0
   10.5993   -4.8981   21.6068 C   0  0  0  0  0  0  0  0  0  0  0  0
   10.4258   -3.0106   23.0998 C   0  0  0  0  0  0  0  0  0  0  0  0
   10.2148   -3.4364   25.4200 C   0  0  0  0  0  0  0  0  0  0  0  0
    9.7853   -1.1840   24.4927 C   0  0  0  0  0  0  0  0  0  0  0  0
    5.0276   -8.5227   17.5352 C   0  0  0  0  0  0  0  0  0  0  0  0
    9.8187   -2.0895   25.5800 C   0  0  0  0  0  0  0  0  0  0  0  0
    5.6473   -8.7216   15.3158 C   0  0  0  0  0  0  0  0  0  0  0  0
   10.7581   -3.1233   19.4720 N   0  0  0  0  0  0  0  0  0  0  0  0
    9.9571   -4.0573   16.8866 C   0  0  0  0  0  0  0  0  0  0  0  0
    7.6213   -6.5618   16.0087 C   0  0  0  0  0  0  0  0  0  0  0  0
   10.8583   -2.6527   20.7222 C   0  0  0  0  0  0  0  0  0  0  0  0
   10.6412   -3.5089   21.7936 C   0  0  0  0  0  0  0  0  0  0  0  0
   10.4972   -3.8968   24.1589 C   0  0  0  0  0  0  0  0  0  0  0  0
    5.9260   -8.2736   16.5517 C   0  0  0  0  0  0  0  0  0  0  0  0
    3.8816   -9.1166   17.2493 C   0  0  0  0  0  0  0  0  0  0  0  0
   10.1297   -1.6575   23.2324 C   0  0  0  0  0  0  0  0  0  0  0  0
    9.4684   -1.6929   26.7263 F   0  0  0  0  0  0  0  0  0  0  0  0
    7.7963   -7.7906   17.9837 C   0  0  0  0  0  0  0  0  0  0  0  0
   10.5884   -3.0725   16.7902 O   0  0  0  0  0  0  0  0  0  0  0  0
   10.4323   -5.3494   20.3516 C   0  0  0  0  0  0  0  0  0  0  0  0
    7.1156   -7.5454   16.8218 C   0  0  0  0  0  0  0  0  0  0  0  0
   10.3885   -4.4388   19.2773 C   0  0  0  0  0  0  0  0  0  0  0  0
    4.5160   -9.3822   15.0841 C   0  0  0  0  0  0  0  0  0  0  0  0
  1  3  4  0
  1 24  4  0
  2  6  4  0
  2 15  4  0
  3  5  4  0
  3  6  4  0
  4 21  4  0
  4 29  4  0
  5 15  4  0
  5 28  1  0
  6 16  4  0
  7 18  4  0
  7 26  4  0
  8 18  1  0
  8 19  4  0
  8 22  4  0
  9 12  4  0
  9 19  4  0
 10 12  4  0
 10 22  4  0
 11 20  4  0
 11 21  4  0
 12 23  1  0
 13 20  4  0
 13 29  4  0
 14 17  4  0
 14 28  4  0
 15 25  2  0
 16 27  4  0
 17 18  4  0
 20 27  1  0
 24 27  4  0
 26 28  4  0
M  END
$$$$

 Created by Python create_sdf_string function

 29 33  0  0  0  0  0  0  0  0999 V2000
    8.8270   -7.0288   18.4251 C   0  0  0  0  0  0  0  0  0  0  0  0
    9.1576   -4.6236   15.8860 O   0  0  0  0  0  0  0  0  0  0  0  0
    9.1509   -5.9108   17.7177 C   0  0  0  0  0  0  0  0  0  0  0  0
    3.6373   -9.5349   16.0582 N   0  0  0  0  0  0  0  0  0  0  0  0
    9.9275   -4.8001   18.0438 N   0  0  0  0  0  0  0  0  0  0  0  0
    8.5908   -5.7425   16.4412 C   0  0  0  0  0  0  0  0  0  0  0  0
   10.5993   -4.8981   21.6068 C   0  0  0  0  0  0  0  0  0  0  0  0
   10.4258   -3.0106   23.0998 C   0  0  0  0  0  0  0  0  0  0  0  0
   10.2148   -3.4364   25.4200 C   0  0  0  0  0  0  0  0  0  0  0  0
    9.7853   -1.1840   24.4927 C   0  0  0  0  0  0  0  0  0  0  0  0
    5.0276   -8.5227   17.5352 C   0  0  0  0  0  0  0  0  0  0  0  0
    9.8187   -2.0895   25.5800 C   0  0  0  0  0  0  0  0  0  0  0  0
    5.6473   -8.7216   15.3158 C   0  0  0  0  0  0  0  0  0  0  0  0
   10.7581   -3.1233   19.4720 N   0  0  0  0  0  0  0  0  0  0  0  0
    9.9571   -4.0573   16.8866 C   0  0  0  0  0  0  0  0  0  0  0  0
    7.6213   -6.5618   16.0087 C   0  0  0  0  0  0  0  0  0  0  0  0
   10.8583   -2.6527   20.7222 C   0  0  0  0  0  0  0  0  0  0  0  0
   10.6412   -3.5089   21.7936 C   0  0  0  0  0  0  0  0  0  0  0  0
   10.4972   -3.8968   24.1589 C   0  0  0  0  0  0  0  0  0  0  0  0
    5.9260   -8.2736   16.5517 C   0  0  0  0  0  0  0  0  0  0  0  0
    3.8816   -9.1166   17.2493 C   0  0  0  0  0  0  0  0  0  0  0  0
   10.1297   -1.6575   23.2324 C   0  0  0  0  0  0  0  0  0  0  0  0
    9.4684   -1.6929   26.7263 F   0  0  0  0  0  0  0  0  0  0  0  0
    7.7963   -7.7906   17.9837 C   0  0  0  0  0  0  0  0  0  0  0  0
   10.5884   -3.0725   16.7902 O   0  0  0  0  0  0  0  0  0  0  0  0
   10.4323   -5.3494   20.3516 C   0  0  0  0  0  0  0  0  0  0  0  0
    7.1156   -7.5454   16.8218 C   0  0  0  0  0  0  0  0  0  0  0  0
   10.3885   -4.4388   19.2773 C   0  0  0  0  0  0  0  0  0  0  0  0
    4.5160   -9.3822   15.0841 C   0  0  0  0  0  0  0  0  0  0  0  0
  1  3  4  0
  1 24  4  0
  2  6  4  0
  2 15  4  0
  3  5  4  0
  3  6  4  0
  4 21  4  0
  4 29  4  0
  5 15  4  0
  5 28  1  0
  6 16  4  0
  7 18  4  0
  7 26  4  0
  8 18  1  0
  8 19  4  0
  8 22  4  0
  9 12  4  0
  9 19  4  0
 10 12  4  0
 10 22  4  0
 11 20  4  0
 11 21  4  0
 12 23  1  0
 13 20  4  0
 13 29  4  0
 14 17  4  0
 14 28  4  0
 15 25  2  0
 16 27  4  0
 17 18  4  0
 20 27  1  0
 24 27  4  0
 26 28  4  0
M  END
$$$$

 Created by Python create_sdf_string function

 29 33  0  0  0  0  0  0  0  0999 V2000
    8.8270   -7.0288   18.4251 C   0  0  0  0  0  0  0  0  0  0  0  0
    9.1576   -4.6236   15.8860 O   0  0  0  0  0  0  0  0  0  0  0  0
    9.1509   -5.9108   17.7177 C   0  0  0  0  0  0  0  0  0  0  0  0
    3.6373   -9.5349   16.0582 N   0  0  0  0  0  0  0  0  0  0  0  0
    9.9275   -4.8001   18.0438 N   0  0  0  0  0  0  0  0  0  0  0  0
    8.5908   -5.7425   16.4412 C   0  0  0  0  0  0  0  0  0  0  0  0
   10.5993   -4.8981   21.6068 C   0  0  0  0  0  0  0  0  0  0  0  0
   10.4258   -3.0106   23.0998 C   0  0  0  0  0  0  0  0  0  0  0  0
   10.2148   -3.4364   25.4200 C   0  0  0  0  0  0  0  0  0  0  0  0
    9.7853   -1.1840   24.4927 C   0  0  0  0  0  0  0  0  0  0  0  0
    5.0276   -8.5227   17.5352 C   0  0  0  0  0  0  0  0  0  0  0  0
    9.8187   -2.0895   25.5800 C   0  0  0  0  0  0  0  0  0  0  0  0
    5.6473   -8.7216   15.3158 C   0  0  0  0  0  0  0  0  0  0  0  0
   10.7581   -3.1233   19.4720 N   0  0  0  0  0  0  0  0  0  0  0  0
    9.9571   -4.0573   16.8866 C   0  0  0  0  0  0  0  0  0  0  0  0
    7.6213   -6.5618   16.0087 C   0  0  0  0  0  0  0  0  0  0  0  0
   10.8583   -2.6527   20.7222 C   0  0  0  0  0  0  0  0  0  0  0  0
   10.6412   -3.5089   21.7936 C   0  0  0  0  0  0  0  0  0  0  0  0
   10.4972   -3.8968   24.1589 C   0  0  0  0  0  0  0  0  0  0  0  0
    5.9260   -8.2736   16.5517 C   0  0  0  0  0  0  0  0  0  0  0  0
    3.8816   -9.1166   17.2493 C   0  0  0  0  0  0  0  0  0  0  0  0
   10.1297   -1.6575   23.2324 C   0  0  0  0  0  0  0  0  0  0  0  0
    9.4684   -1.6929   26.7263 F   0  0  0  0  0  0  0  0  0  0  0  0
    7.7963   -7.7906   17.9837 C   0  0  0  0  0  0  0  0  0  0  0  0
   10.5884   -3.0725   16.7902 O   0  0  0  0  0  0  0  0  0  0  0  0
   10.4323   -5.3494   20.3516 C   0  0  0  0  0  0  0  0  0  0  0  0
    7.1156   -7.5454   16.8218 C   0  0  0  0  0  0  0  0  0  0  0  0
   10.3885   -4.4388   19.2773 C   0  0  0  0  0  0  0  0  0  0  0  0
    4.5160   -9.3822   15.0841 C   0  0  0  0  0  0  0  0  0  0  0  0
  1  3  4  0
  1 24  4  0
  2  6  4  0
  2 15  4  0
  3  5  4  0
  3  6  4  0
  4 21  4  0
  4 29  4  0
  5 15  4  0
  5 28  1  0
  6 16  4  0
  7 18  4  0
  7 26  4  0
  8 18  1  0
  8 19  4  0
  8 22  4  0
  9 12  4  0
  9 19  4  0
 10 12  4  0
 10 22  4  0
 11 20  4  0
 11 21  4  0
 12 23  1  0
 13 20  4  0
 13 29  4  0
 14 17  4  0
 14 28  4  0
 15 25  2  0
 16 27  4  0
 17 18  4  0
 20 27  1  0
 24 27  4  0
 26 28  4  0
M  END
$$$$

 Created by Python create_sdf_string function

 29 33  0  0  0  0  0  0  0  0999 V2000
    8.8270   -7.0288   18.4251 C   0  0  0  0  0  0  0  0  0  0  0  0
    9.1576   -4.6236   15.8860 O   0  0  0  0  0  0  0  0  0  0  0  0
    9.1509   -5.9108   17.7177 C   0  0  0  0  0  0  0  0  0  0  0  0
    3.6373   -9.5349   16.0582 N   0  0  0  0  0  0  0  0  0  0  0  0
    9.9275   -4.8001   18.0438 N   0  0  0  0  0  0  0  0  0  0  0  0
    8.5908   -5.7425   16.4412 C   0  0  0  0  0  0  0  0  0  0  0  0
   10.5993   -4.8981   21.6068 C   0  0  0  0  0  0  0  0  0  0  0  0
   10.4258   -3.0106   23.0998 C   0  0  0  0  0  0  0  0  0  0  0  0
   10.2148   -3.4364   25.4200 C   0  0  0  0  0  0  0  0  0  0  0  0
    9.7853   -1.1840   24.4927 C   0  0  0  0  0  0  0  0  0  0  0  0
    5.0276   -8.5227   17.5352 C   0  0  0  0  0  0  0  0  0  0  0  0
    9.8187   -2.0895   25.5800 C   0  0  0  0  0  0  0  0  0  0  0  0
    5.6473   -8.7216   15.3158 C   0  0  0  0  0  0  0  0  0  0  0  0
   10.7581   -3.1233   19.4720 N   0  0  0  0  0  0  0  0  0  0  0  0
    9.9571   -4.0573   16.8866 C   0  0  0  0  0  0  0  0  0  0  0  0
    7.6213   -6.5618   16.0087 C   0  0  0  0  0  0  0  0  0  0  0  0
   10.8583   -2.6527   20.7222 C   0  0  0  0  0  0  0  0  0  0  0  0
   10.6412   -3.5089   21.7936 C   0  0  0  0  0  0  0  0  0  0  0  0
   10.4972   -3.8968   24.1589 C   0  0  0  0  0  0  0  0  0  0  0  0
    5.9260   -8.2736   16.5517 C   0  0  0  0  0  0  0  0  0  0  0  0
    3.8816   -9.1166   17.2493 C   0  0  0  0  0  0  0  0  0  0  0  0
   10.1297   -1.6575   23.2324 C   0  0  0  0  0  0  0  0  0  0  0  0
    9.4684   -1.6929   26.7263 F   0  0  0  0  0  0  0  0  0  0  0  0
    7.7963   -7.7906   17.9837 C   0  0  0  0  0  0  0  0  0  0  0  0
   10.5884   -3.0725   16.7902 O   0  0  0  0  0  0  0  0  0  0  0  0
   10.4323   -5.3494   20.3516 C   0  0  0  0  0  0  0  0  0  0  0  0
    7.1156   -7.5454   16.8218 C   0  0  0  0  0  0  0  0  0  0  0  0
   10.3885   -4.4388   19.2773 C   0  0  0  0  0  0  0  0  0  0  0  0
    4.5160   -9.3822   15.0841 C   0  0  0  0  0  0  0  0  0  0  0  0
  1  3  4  0
  1 24  4  0
  2  6  4  0
  2 15  4  0
  3  5  4  0
  3  6  4  0
  4 21  4  0
  4 29  4  0
  5 15  4  0
  5 28  1  0
  6 16  4  0
  7 18  4  0
  7 26  4  0
  8 18  1  0
  8 19  4  0
  8 22  4  0
  9 12  4  0
  9 19  4  0
 10 12  4  0
 10 22  4  0
 11 20  4  0
 11 21  4  0
 12 23  1  0
 13 20  4  0
 13 29  4  0
 14 17  4  0
 14 28  4  0
 15 25  2  0
 16 27  4  0
 17 18  4  0
 20 27  1  0
 24 27  4  0
 26 28  4  0
M  END
$$$$

 Created by Python create_sdf_string function

 29 33  0  0  0  0  0  0  0  0999 V2000
    8.8270   -7.0288   18.4251 C   0  0  0  0  0  0  0  0  0  0  0  0
    9.1576   -4.6236   15.8860 O   0  0  0  0  0  0  0  0  0  0  0  0
    9.1509   -5.9108   17.7177 C   0  0  0  0  0  0  0  0  0  0  0  0
    3.6373   -9.5349   16.0582 N   0  0  0  0  0  0  0  0  0  0  0  0
    9.9275   -4.8001   18.0438 N   0  0  0  0  0  0  0  0  0  0  0  0
    8.5908   -5.7425   16.4412 C   0  0  0  0  0  0  0  0  0  0  0  0
   10.5993   -4.8981   21.6068 C   0  0  0  0  0  0  0  0  0  0  0  0
   10.4258   -3.0106   23.0998 C   0  0  0  0  0  0  0  0  0  0  0  0
   10.2148   -3.4364   25.4200 C   0  0  0  0  0  0  0  0  0  0  0  0
    9.7853   -1.1840   24.4927 C   0  0  0  0  0  0  0  0  0  0  0  0
    5.0276   -8.5227   17.5352 C   0  0  0  0  0  0  0  0  0  0  0  0
    9.8187   -2.0895   25.5800 C   0  0  0  0  0  0  0  0  0  0  0  0
    5.6473   -8.7216   15.3158 C   0  0  0  0  0  0  0  0  0  0  0  0
   10.7581   -3.1233   19.4720 N   0  0  0  0  0  0  0  0  0  0  0  0
    9.9571   -4.0573   16.8866 C   0  0  0  0  0  0  0  0  0  0  0  0
    7.6213   -6.5618   16.0087 C   0  0  0  0  0  0  0  0  0  0  0  0
   10.8583   -2.6527   20.7222 C   0  0  0  0  0  0  0  0  0  0  0  0
   10.6412   -3.5089   21.7936 C   0  0  0  0  0  0  0  0  0  0  0  0
   10.4972   -3.8968   24.1589 C   0  0  0  0  0  0  0  0  0  0  0  0
    5.9260   -8.2736   16.5517 C   0  0  0  0  0  0  0  0  0  0  0  0
    3.8816   -9.1166   17.2493 C   0  0  0  0  0  0  0  0  0  0  0  0
   10.1297   -1.6575   23.2324 C   0  0  0  0  0  0  0  0  0  0  0  0
    9.4684   -1.6929   26.7263 F   0  0  0  0  0  0  0  0  0  0  0  0
    7.7963   -7.7906   17.9837 C   0  0  0  0  0  0  0  0  0  0  0  0
   10.5884   -3.0725   16.7902 O   0  0  0  0  0  0  0  0  0  0  0  0
   10.4323   -5.3494   20.3516 C   0  0  0  0  0  0  0  0  0  0  0  0
    7.1156   -7.5454   16.8218 C   0  0  0  0  0  0  0  0  0  0  0  0
   10.3885   -4.4388   19.2773 C   0  0  0  0  0  0  0  0  0  0  0  0
    4.5160   -9.3822   15.0841 C   0  0  0  0  0  0  0  0  0  0  0  0
  1  3  4  0
  1 24  4  0
  2  6  4  0
  2 15  4  0
  3  5  4  0
  3  6  4  0
  4 21  4  0
  4 29  4  0
  5 15  4  0
  5 28  1  0
  6 16  4  0
  7 18  4  0
  7 26  4  0
  8 18  1  0
  8 19  4  0
  8 22  4  0
  9 12  4  0
  9 19  4  0
 10 12  4  0
 10 22  4  0
 11 20  4  0
 11 21  4  0
 12 23  1  0
 13 20  4  0
 13 29  4  0
 14 17  4  0
 14 28  4  0
 15 25  2  0
 16 27  4  0
 17 18  4  0
 20 27  1  0
 24 27  4  0
 26 28  4  0
M  END
$$$$

 Created by Python create_sdf_string function

 29 33  0  0  0  0  0  0  0  0999 V2000
    8.8270   -7.0288   18.4251 C   0  0  0  0  0  0  0  0  0  0  0  0
    9.1576   -4.6236   15.8860 O   0  0  0  0  0  0  0  0  0  0  0  0
    9.1509   -5.9108   17.7177 C   0  0  0  0  0  0  0  0  0  0  0  0
    3.6373   -9.5349   16.0582 N   0  0  0  0  0  0  0  0  0  0  0  0
    9.9275   -4.8001   18.0438 N   0  0  0  0  0  0  0  0  0  0  0  0
    8.5908   -5.7425   16.4412 C   0  0  0  0  0  0  0  0  0  0  0  0
   10.5993   -4.8981   21.6068 C   0  0  0  0  0  0  0  0  0  0  0  0
   10.4258   -3.0106   23.0998 C   0  0  0  0  0  0  0  0  0  0  0  0
   10.2148   -3.4364   25.4200 C   0  0  0  0  0  0  0  0  0  0  0  0
    9.7853   -1.1840   24.4927 C   0  0  0  0  0  0  0  0  0  0  0  0
    5.0276   -8.5227   17.5352 C   0  0  0  0  0  0  0  0  0  0  0  0
    9.8187   -2.0895   25.5800 C   0  0  0  0  0  0  0  0  0  0  0  0
    5.6473   -8.7216   15.3158 C   0  0  0  0  0  0  0  0  0  0  0  0
   10.7581   -3.1233   19.4720 N   0  0  0  0  0  0  0  0  0  0  0  0
    9.9571   -4.0573   16.8866 C   0  0  0  0  0  0  0  0  0  0  0  0
    7.6213   -6.5618   16.0087 C   0  0  0  0  0  0  0  0  0  0  0  0
   10.8583   -2.6527   20.7222 C   0  0  0  0  0  0  0  0  0  0  0  0
   10.6412   -3.5089   21.7936 C   0  0  0  0  0  0  0  0  0  0  0  0
   10.4972   -3.8968   24.1589 C   0  0  0  0  0  0  0  0  0  0  0  0
    5.9260   -8.2736   16.5517 C   0  0  0  0  0  0  0  0  0  0  0  0
    3.8816   -9.1166   17.2493 C   0  0  0  0  0  0  0  0  0  0  0  0
   10.1297   -1.6575   23.2324 C   0  0  0  0  0  0  0  0  0  0  0  0
    9.4684   -1.6929   26.7263 F   0  0  0  0  0  0  0  0  0  0  0  0
    7.7963   -7.7906   17.9837 C   0  0  0  0  0  0  0  0  0  0  0  0
   10.5884   -3.0725   16.7902 O   0  0  0  0  0  0  0  0  0  0  0  0
   10.4323   -5.3494   20.3516 C   0  0  0  0  0  0  0  0  0  0  0  0
    7.1156   -7.5454   16.8218 C   0  0  0  0  0  0  0  0  0  0  0  0
   10.3885   -4.4388   19.2773 C   0  0  0  0  0  0  0  0  0  0  0  0
    4.5160   -9.3822   15.0841 C   0  0  0  0  0  0  0  0  0  0  0  0
  1  3  4  0
  1 24  4  0
  2  6  4  0
  2 15  4  0
  3  5  4  0
  3  6  4  0
  4 21  4  0
  4 29  4  0
  5 15  4  0
  5 28  1  0
  6 16  4  0
  7 18  4  0
  7 26  4  0
  8 18  1  0
  8 19  4  0
  8 22  4  0
  9 12  4  0
  9 19  4  0
 10 12  4  0
 10 22  4  0
 11 20  4  0
 11 21  4  0
 12 23  1  0
 13 20  4  0
 13 29  4  0
 14 17  4  0
 14 28  4  0
 15 25  2  0
 16 27  4  0
 17 18  4  0
 20 27  1  0
 24 27  4  0
 26 28  4  0
M  END
$$$$

 Created by Python create_sdf_string function

 29 33  0  0  0  0  0  0  0  0999 V2000
    8.8270   -7.0288   18.4251 C   0  0  0  0  0  0  0  0  0  0  0  0
    9.1576   -4.6236   15.8860 O   0  0  0  0  0  0  0  0  0  0  0  0
    9.1509   -5.9108   17.7177 C   0  0  0  0  0  0  0  0  0  0  0  0
    3.6373   -9.5349   16.0582 N   0  0  0  0  0  0  0  0  0  0  0  0
    9.9275   -4.8001   18.0438 N   0  0  0  0  0  0  0  0  0  0  0  0
    8.5908   -5.7425   16.4412 C   0  0  0  0  0  0  0  0  0  0  0  0
   10.5993   -4.8981   21.6068 C   0  0  0  0  0  0  0  0  0  0  0  0
   10.4258   -3.0106   23.0998 C   0  0  0  0  0  0  0  0  0  0  0  0
   10.2148   -3.4364   25.4200 C   0  0  0  0  0  0  0  0  0  0  0  0
    9.7853   -1.1840   24.4927 C   0  0  0  0  0  0  0  0  0  0  0  0
    5.0276   -8.5227   17.5352 C   0  0  0  0  0  0  0  0  0  0  0  0
    9.8187   -2.0895   25.5800 C   0  0  0  0  0  0  0  0  0  0  0  0
    5.6473   -8.7216   15.3158 C   0  0  0  0  0  0  0  0  0  0  0  0
   10.7581   -3.1233   19.4720 N   0  0  0  0  0  0  0  0  0  0  0  0
    9.9571   -4.0573   16.8866 C   0  0  0  0  0  0  0  0  0  0  0  0
    7.6213   -6.5618   16.0087 C   0  0  0  0  0  0  0  0  0  0  0  0
   10.8583   -2.6527   20.7222 C   0  0  0  0  0  0  0  0  0  0  0  0
   10.6412   -3.5089   21.7936 C   0  0  0  0  0  0  0  0  0  0  0  0
   10.4972   -3.8968   24.1589 C   0  0  0  0  0  0  0  0  0  0  0  0
    5.9260   -8.2736   16.5517 C   0  0  0  0  0  0  0  0  0  0  0  0
    3.8816   -9.1166   17.2493 C   0  0  0  0  0  0  0  0  0  0  0  0
   10.1297   -1.6575   23.2324 C   0  0  0  0  0  0  0  0  0  0  0  0
    9.4684   -1.6929   26.7263 F   0  0  0  0  0  0  0  0  0  0  0  0
    7.7963   -7.7906   17.9837 C   0  0  0  0  0  0  0  0  0  0  0  0
   10.5884   -3.0725   16.7902 O   0  0  0  0  0  0  0  0  0  0  0  0
   10.4323   -5.3494   20.3516 C   0  0  0  0  0  0  0  0  0  0  0  0
    7.1156   -7.5454   16.8218 C   0  0  0  0  0  0  0  0  0  0  0  0
   10.3885   -4.4388   19.2773 C   0  0  0  0  0  0  0  0  0  0  0  0
    4.5160   -9.3822   15.0841 C   0  0  0  0  0  0  0  0  0  0  0  0
  1  3  4  0
  1 24  4  0
  2  6  4  0
  2 15  4  0
  3  5  4  0
  3  6  4  0
  4 21  4  0
  4 29  4  0
  5 15  4  0
  5 28  1  0
  6 16  4  0
  7 18  4  0
  7 26  4  0
  8 18  1  0
  8 19  4  0
  8 22  4  0
  9 12  4  0
  9 19  4  0
 10 12  4  0
 10 22  4  0
 11 20  4  0
 11 21  4  0
 12 23  1  0
 13 20  4  0
 13 29  4  0
 14 17  4  0
 14 28  4  0
 15 25  2  0
 16 27  4  0
 17 18  4  0
 20 27  1  0
 24 27  4  0
 26 28  4  0
M  END
$$$$

 Created by Python create_sdf_string function

 29 33  0  0  0  0  0  0  0  0999 V2000
    8.8270   -7.0288   18.4251 C   0  0  0  0  0  0  0  0  0  0  0  0
    9.1576   -4.6236   15.8860 O   0  0  0  0  0  0  0  0  0  0  0  0
    9.1509   -5.9108   17.7177 C   0  0  0  0  0  0  0  0  0  0  0  0
    3.6373   -9.5349   16.0582 N   0  0  0  0  0  0  0  0  0  0  0  0
    9.9275   -4.8001   18.0438 N   0  0  0  0  0  0  0  0  0  0  0  0
    8.5908   -5.7425   16.4412 C   0  0  0  0  0  0  0  0  0  0  0  0
   10.5993   -4.8981   21.6068 C   0  0  0  0  0  0  0  0  0  0  0  0
   10.4258   -3.0106   23.0998 C   0  0  0  0  0  0  0  0  0  0  0  0
   10.2148   -3.4364   25.4200 C   0  0  0  0  0  0  0  0  0  0  0  0
    9.7853   -1.1840   24.4927 C   0  0  0  0  0  0  0  0  0  0  0  0
    5.0276   -8.5227   17.5352 C   0  0  0  0  0  0  0  0  0  0  0  0
    9.8187   -2.0895   25.5800 C   0  0  0  0  0  0  0  0  0  0  0  0
    5.6473   -8.7216   15.3158 C   0  0  0  0  0  0  0  0  0  0  0  0
   10.7581   -3.1233   19.4720 N   0  0  0  0  0  0  0  0  0  0  0  0
    9.9571   -4.0573   16.8866 C   0  0  0  0  0  0  0  0  0  0  0  0
    7.6213   -6.5618   16.0087 C   0  0  0  0  0  0  0  0  0  0  0  0
   10.8583   -2.6527   20.7222 C   0  0  0  0  0  0  0  0  0  0  0  0
   10.6412   -3.5089   21.7936 C   0  0  0  0  0  0  0  0  0  0  0  0
   10.4972   -3.8968   24.1589 C   0  0  0  0  0  0  0  0  0  0  0  0
    5.9260   -8.2736   16.5517 C   0  0  0  0  0  0  0  0  0  0  0  0
    3.8816   -9.1166   17.2493 C   0  0  0  0  0  0  0  0  0  0  0  0
   10.1297   -1.6575   23.2324 C   0  0  0  0  0  0  0  0  0  0  0  0
    9.4684   -1.6929   26.7263 F   0  0  0  0  0  0  0  0  0  0  0  0
    7.7963   -7.7906   17.9837 C   0  0  0  0  0  0  0  0  0  0  0  0
   10.5884   -3.0725   16.7902 O   0  0  0  0  0  0  0  0  0  0  0  0
   10.4323   -5.3494   20.3516 C   0  0  0  0  0  0  0  0  0  0  0  0
    7.1156   -7.5454   16.8218 C   0  0  0  0  0  0  0  0  0  0  0  0
   10.3885   -4.4388   19.2773 C   0  0  0  0  0  0  0  0  0  0  0  0
    4.5160   -9.3822   15.0841 C   0  0  0  0  0  0  0  0  0  0  0  0
  1  3  4  0
  1 24  4  0
  2  6  4  0
  2 15  4  0
  3  5  4  0
  3  6  4  0
  4 21  4  0
  4 29  4  0
  5 15  4  0
  5 28  1  0
  6 16  4  0
  7 18  4  0
  7 26  4  0
  8 18  1  0
  8 19  4  0
  8 22  4  0
  9 12  4  0
  9 19  4  0
 10 12  4  0
 10 22  4  0
 11 20  4  0
 11 21  4  0
 12 23  1  0
 13 20  4  0
 13 29  4  0
 14 17  4  0
 14 28  4  0
 15 25  2  0
 16 27  4  0
 17 18  4  0
 20 27  1  0
 24 27  4  0
 26 28  4  0
M  END
$$$$

 Created by Python create_sdf_string function

 29 33  0  0  0  0  0  0  0  0999 V2000
    8.8270   -7.0288   18.4251 C   0  0  0  0  0  0  0  0  0  0  0  0
    9.1576   -4.6236   15.8860 O   0  0  0  0  0  0  0  0  0  0  0  0
    9.1509   -5.9108   17.7177 C   0  0  0  0  0  0  0  0  0  0  0  0
    3.6373   -9.5349   16.0582 N   0  0  0  0  0  0  0  0  0  0  0  0
    9.9275   -4.8001   18.0438 N   0  0  0  0  0  0  0  0  0  0  0  0
    8.5908   -5.7425   16.4412 C   0  0  0  0  0  0  0  0  0  0  0  0
   10.5993   -4.8981   21.6068 C   0  0  0  0  0  0  0  0  0  0  0  0
   10.4258   -3.0106   23.0998 C   0  0  0  0  0  0  0  0  0  0  0  0
   10.2148   -3.4364   25.4200 C   0  0  0  0  0  0  0  0  0  0  0  0
    9.7853   -1.1840   24.4927 C   0  0  0  0  0  0  0  0  0  0  0  0
    5.0276   -8.5227   17.5352 C   0  0  0  0  0  0  0  0  0  0  0  0
    9.8187   -2.0895   25.5800 C   0  0  0  0  0  0  0  0  0  0  0  0
    5.6473   -8.7216   15.3158 C   0  0  0  0  0  0  0  0  0  0  0  0
   10.7581   -3.1233   19.4720 N   0  0  0  0  0  0  0  0  0  0  0  0
    9.9571   -4.0573   16.8866 C   0  0  0  0  0  0  0  0  0  0  0  0
    7.6213   -6.5618   16.0087 C   0  0  0  0  0  0  0  0  0  0  0  0
   10.8583   -2.6527   20.7222 C   0  0  0  0  0  0  0  0  0  0  0  0
   10.6412   -3.5089   21.7936 C   0  0  0  0  0  0  0  0  0  0  0  0
   10.4972   -3.8968   24.1589 C   0  0  0  0  0  0  0  0  0  0  0  0
    5.9260   -8.2736   16.5517 C   0  0  0  0  0  0  0  0  0  0  0  0
    3.8816   -9.1166   17.2493 C   0  0  0  0  0  0  0  0  0  0  0  0
   10.1297   -1.6575   23.2324 C   0  0  0  0  0  0  0  0  0  0  0  0
    9.4684   -1.6929   26.7263 F   0  0  0  0  0  0  0  0  0  0  0  0
    7.7963   -7.7906   17.9837 C   0  0  0  0  0  0  0  0  0  0  0  0
   10.5884   -3.0725   16.7902 O   0  0  0  0  0  0  0  0  0  0  0  0
   10.4323   -5.3494   20.3516 C   0  0  0  0  0  0  0  0  0  0  0  0
    7.1156   -7.5454   16.8218 C   0  0  0  0  0  0  0  0  0  0  0  0
   10.3885   -4.4388   19.2773 C   0  0  0  0  0  0  0  0  0  0  0  0
    4.5160   -9.3822   15.0841 C   0  0  0  0  0  0  0  0  0  0  0  0
  1  3  4  0
  1 24  4  0
  2  6  4  0
  2 15  4  0
  3  5  4  0
  3  6  4  0
  4 21  4  0
  4 29  4  0
  5 15  4  0
  5 28  1  0
  6 16  4  0
  7 18  4  0
  7 26  4  0
  8 18  1  0
  8 19  4  0
  8 22  4  0
  9 12  4  0
  9 19  4  0
 10 12  4  0
 10 22  4  0
 11 20  4  0
 11 21  4  0
 12 23  1  0
 13 20  4  0
 13 29  4  0
 14 17  4  0
 14 28  4  0
 15 25  2  0
 16 27  4  0
 17 18  4  0
 20 27  1  0
 24 27  4  0
 26 28  4  0
M  END
$$$$

 Created by Python create_sdf_string function

 29 33  0  0  0  0  0  0  0  0999 V2000
    8.8270   -7.0288   18.4251 C   0  0  0  0  0  0  0  0  0  0  0  0
    9.1576   -4.6236   15.8860 O   0  0  0  0  0  0  0  0  0  0  0  0
    9.1509   -5.9108   17.7177 C   0  0  0  0  0  0  0  0  0  0  0  0
    3.6373   -9.5349   16.0582 N   0  0  0  0  0  0  0  0  0  0  0  0
    9.9275   -4.8001   18.0438 N   0  0  0  0  0  0  0  0  0  0  0  0
    8.5908   -5.7425   16.4412 C   0  0  0  0  0  0  0  0  0  0  0  0
   10.5993   -4.8981   21.6068 C   0  0  0  0  0  0  0  0  0  0  0  0
   10.4258   -3.0106   23.0998 C   0  0  0  0  0  0  0  0  0  0  0  0
   10.2148   -3.4364   25.4200 C   0  0  0  0  0  0  0  0  0  0  0  0
    9.7853   -1.1840   24.4927 C   0  0  0  0  0  0  0  0  0  0  0  0
    5.0276   -8.5227   17.5352 C   0  0  0  0  0  0  0  0  0  0  0  0
    9.8187   -2.0895   25.5800 C   0  0  0  0  0  0  0  0  0  0  0  0
    5.6473   -8.7216   15.3158 C   0  0  0  0  0  0  0  0  0  0  0  0
   10.7581   -3.1233   19.4720 N   0  0  0  0  0  0  0  0  0  0  0  0
    9.9571   -4.0573   16.8866 C   0  0  0  0  0  0  0  0  0  0  0  0
    7.6213   -6.5618   16.0087 C   0  0  0  0  0  0  0  0  0  0  0  0
   10.8583   -2.6527   20.7222 C   0  0  0  0  0  0  0  0  0  0  0  0
   10.6412   -3.5089   21.7936 C   0  0  0  0  0  0  0  0  0  0  0  0
   10.4972   -3.8968   24.1589 C   0  0  0  0  0  0  0  0  0  0  0  0
    5.9260   -8.2736   16.5517 C   0  0  0  0  0  0  0  0  0  0  0  0
    3.8816   -9.1166   17.2493 C   0  0  0  0  0  0  0  0  0  0  0  0
   10.1297   -1.6575   23.2324 C   0  0  0  0  0  0  0  0  0  0  0  0
    9.4684   -1.6929   26.7263 F   0  0  0  0  0  0  0  0  0  0  0  0
    7.7963   -7.7906   17.9837 C   0  0  0  0  0  0  0  0  0  0  0  0
   10.5884   -3.0725   16.7902 O   0  0  0  0  0  0  0  0  0  0  0  0
   10.4323   -5.3494   20.3516 C   0  0  0  0  0  0  0  0  0  0  0  0
    7.1156   -7.5454   16.8218 C   0  0  0  0  0  0  0  0  0  0  0  0
   10.3885   -4.4388   19.2773 C   0  0  0  0  0  0  0  0  0  0  0  0
    4.5160   -9.3822   15.0841 C   0  0  0  0  0  0  0  0  0  0  0  0
  1  3  4  0
  1 24  4  0
  2  6  4  0
  2 15  4  0
  3  5  4  0
  3  6  4  0
  4 21  4  0
  4 29  4  0
  5 15  4  0
  5 28  1  0
  6 16  4  0
  7 18  4  0
  7 26  4  0
  8 18  1  0
  8 19  4  0
  8 22  4  0
  9 12  4  0
  9 19  4  0
 10 12  4  0
 10 22  4  0
 11 20  4  0
 11 21  4  0
 12 23  1  0
 13 20  4  0
 13 29  4  0
 14 17  4  0
 14 28  4  0
 15 25  2  0
 16 27  4  0
 17 18  4  0
 20 27  1  0
 24 27  4  0
 26 28  4  0
M  END
$$$$

 Created by Python create_sdf_string function

 29 33  0  0  0  0  0  0  0  0999 V2000
    8.8270   -7.0288   18.4251 C   0  0  0  0  0  0  0  0  0  0  0  0
    9.1576   -4.6236   15.8860 O   0  0  0  0  0  0  0  0  0  0  0  0
    9.1509   -5.9108   17.7177 C   0  0  0  0  0  0  0  0  0  0  0  0
    3.6373   -9.5349   16.0582 N   0  0  0  0  0  0  0  0  0  0  0  0
    9.9275   -4.8001   18.0438 N   0  0  0  0  0  0  0  0  0  0  0  0
    8.5908   -5.7425   16.4412 C   0  0  0  0  0  0  0  0  0  0  0  0
   10.5993   -4.8981   21.6068 C   0  0  0  0  0  0  0  0  0  0  0  0
   10.4258   -3.0106   23.0998 C   0  0  0  0  0  0  0  0  0  0  0  0
   10.2148   -3.4364   25.4200 C   0  0  0  0  0  0  0  0  0  0  0  0
    9.7853   -1.1840   24.4927 C   0  0  0  0  0  0  0  0  0  0  0  0
    5.0276   -8.5227   17.5352 C   0  0  0  0  0  0  0  0  0  0  0  0
    9.8187   -2.0895   25.5800 C   0  0  0  0  0  0  0  0  0  0  0  0
    5.6473   -8.7216   15.3158 C   0  0  0  0  0  0  0  0  0  0  0  0
   10.7581   -3.1233   19.4720 N   0  0  0  0  0  0  0  0  0  0  0  0
    9.9571   -4.0573   16.8866 C   0  0  0  0  0  0  0  0  0  0  0  0
    7.6213   -6.5618   16.0087 C   0  0  0  0  0  0  0  0  0  0  0  0
   10.8583   -2.6527   20.7222 C   0  0  0  0  0  0  0  0  0  0  0  0
   10.6412   -3.5089   21.7936 C   0  0  0  0  0  0  0  0  0  0  0  0
   10.4972   -3.8968   24.1589 C   0  0  0  0  0  0  0  0  0  0  0  0
    5.9260   -8.2736   16.5517 C   0  0  0  0  0  0  0  0  0  0  0  0
    3.8816   -9.1166   17.2493 C   0  0  0  0  0  0  0  0  0  0  0  0
   10.1297   -1.6575   23.2324 C   0  0  0  0  0  0  0  0  0  0  0  0
    9.4684   -1.6929   26.7263 F   0  0  0  0  0  0  0  0  0  0  0  0
    7.7963   -7.7906   17.9837 C   0  0  0  0  0  0  0  0  0  0  0  0
   10.5884   -3.0725   16.7902 O   0  0  0  0  0  0  0  0  0  0  0  0
   10.4323   -5.3494   20.3516 C   0  0  0  0  0  0  0  0  0  0  0  0
    7.1156   -7.5454   16.8218 C   0  0  0  0  0  0  0  0  0  0  0  0
   10.3885   -4.4388   19.2773 C   0  0  0  0  0  0  0  0  0  0  0  0
    4.5160   -9.3822   15.0841 C   0  0  0  0  0  0  0  0  0  0  0  0
  1  3  4  0
  1 24  4  0
  2  6  4  0
  2 15  4  0
  3  5  4  0
  3  6  4  0
  4 21  4  0
  4 29  4  0
  5 15  4  0
  5 28  1  0
  6 16  4  0
  7 18  4  0
  7 26  4  0
  8 18  1  0
  8 19  4  0
  8 22  4  0
  9 12  4  0
  9 19  4  0
 10 12  4  0
 10 22  4  0
 11 20  4  0
 11 21  4  0
 12 23  1  0
 13 20  4  0
 13 29  4  0
 14 17  4  0
 14 28  4  0
 15 25  2  0
 16 27  4  0
 17 18  4  0
 20 27  1  0
 24 27  4  0
 26 28  4  0
M  END
$$$$

 Created by Python create_sdf_string function

 29 33  0  0  0  0  0  0  0  0999 V2000
    8.8270   -7.0288   18.4251 C   0  0  0  0  0  0  0  0  0  0  0  0
    9.1576   -4.6236   15.8860 O   0  0  0  0  0  0  0  0  0  0  0  0
    9.1509   -5.9108   17.7177 C   0  0  0  0  0  0  0  0  0  0  0  0
    3.6373   -9.5349   16.0582 N   0  0  0  0  0  0  0  0  0  0  0  0
    9.9275   -4.8001   18.0438 N   0  0  0  0  0  0  0  0  0  0  0  0
    8.5908   -5.7425   16.4412 C   0  0  0  0  0  0  0  0  0  0  0  0
   10.5993   -4.8981   21.6068 C   0  0  0  0  0  0  0  0  0  0  0  0
   10.4258   -3.0106   23.0998 C   0  0  0  0  0  0  0  0  0  0  0  0
   10.2148   -3.4364   25.4200 C   0  0  0  0  0  0  0  0  0  0  0  0
    9.7853   -1.1840   24.4927 C   0  0  0  0  0  0  0  0  0  0  0  0
    5.0276   -8.5227   17.5352 C   0  0  0  0  0  0  0  0  0  0  0  0
    9.8187   -2.0895   25.5800 C   0  0  0  0  0  0  0  0  0  0  0  0
    5.6473   -8.7216   15.3158 C   0  0  0  0  0  0  0  0  0  0  0  0
   10.7581   -3.1233   19.4720 N   0  0  0  0  0  0  0  0  0  0  0  0
    9.9571   -4.0573   16.8866 C   0  0  0  0  0  0  0  0  0  0  0  0
    7.6213   -6.5618   16.0087 C   0  0  0  0  0  0  0  0  0  0  0  0
   10.8583   -2.6527   20.7222 C   0  0  0  0  0  0  0  0  0  0  0  0
   10.6412   -3.5089   21.7936 C   0  0  0  0  0  0  0  0  0  0  0  0
   10.4972   -3.8968   24.1589 C   0  0  0  0  0  0  0  0  0  0  0  0
    5.9260   -8.2736   16.5517 C   0  0  0  0  0  0  0  0  0  0  0  0
    3.8816   -9.1166   17.2493 C   0  0  0  0  0  0  0  0  0  0  0  0
   10.1297   -1.6575   23.2324 C   0  0  0  0  0  0  0  0  0  0  0  0
    9.4684   -1.6929   26.7263 F   0  0  0  0  0  0  0  0  0  0  0  0
    7.7963   -7.7906   17.9837 C   0  0  0  0  0  0  0  0  0  0  0  0
   10.5884   -3.0725   16.7902 O   0  0  0  0  0  0  0  0  0  0  0  0
   10.4323   -5.3494   20.3516 C   0  0  0  0  0  0  0  0  0  0  0  0
    7.1156   -7.5454   16.8218 C   0  0  0  0  0  0  0  0  0  0  0  0
   10.3885   -4.4388   19.2773 C   0  0  0  0  0  0  0  0  0  0  0  0
    4.5160   -9.3822   15.0841 C   0  0  0  0  0  0  0  0  0  0  0  0
  1  3  4  0
  1 24  4  0
  2  6  4  0
  2 15  4  0
  3  5  4  0
  3  6  4  0
  4 21  4  0
  4 29  4  0
  5 15  4  0
  5 28  1  0
  6 16  4  0
  7 18  4  0
  7 26  4  0
  8 18  1  0
  8 19  4  0
  8 22  4  0
  9 12  4  0
  9 19  4  0
 10 12  4  0
 10 22  4  0
 11 20  4  0
 11 21  4  0
 12 23  1  0
 13 20  4  0
 13 29  4  0
 14 17  4  0
 14 28  4  0
 15 25  2  0
 16 27  4  0
 17 18  4  0
 20 27  1  0
 24 27  4  0
 26 28  4  0
M  END
$$$$

 Created by Python create_sdf_string function

 29 33  0  0  0  0  0  0  0  0999 V2000
    8.8270   -7.0288   18.4251 C   0  0  0  0  0  0  0  0  0  0  0  0
    9.1576   -4.6236   15.8860 O   0  0  0  0  0  0  0  0  0  0  0  0
    9.1509   -5.9108   17.7177 C   0  0  0  0  0  0  0  0  0  0  0  0
    3.6373   -9.5349   16.0582 N   0  0  0  0  0  0  0  0  0  0  0  0
    9.9275   -4.8001   18.0438 N   0  0  0  0  0  0  0  0  0  0  0  0
    8.5908   -5.7425   16.4412 C   0  0  0  0  0  0  0  0  0  0  0  0
   10.5993   -4.8981   21.6068 C   0  0  0  0  0  0  0  0  0  0  0  0
   10.4258   -3.0106   23.0998 C   0  0  0  0  0  0  0  0  0  0  0  0
   10.2148   -3.4364   25.4200 C   0  0  0  0  0  0  0  0  0  0  0  0
    9.7853   -1.1840   24.4927 C   0  0  0  0  0  0  0  0  0  0  0  0
    5.0276   -8.5227   17.5352 C   0  0  0  0  0  0  0  0  0  0  0  0
    9.8187   -2.0895   25.5800 C   0  0  0  0  0  0  0  0  0  0  0  0
    5.6473   -8.7216   15.3158 C   0  0  0  0  0  0  0  0  0  0  0  0
   10.7581   -3.1233   19.4720 N   0  0  0  0  0  0  0  0  0  0  0  0
    9.9571   -4.0573   16.8866 C   0  0  0  0  0  0  0  0  0  0  0  0
    7.6213   -6.5618   16.0087 C   0  0  0  0  0  0  0  0  0  0  0  0
   10.8583   -2.6527   20.7222 C   0  0  0  0  0  0  0  0  0  0  0  0
   10.6412   -3.5089   21.7936 C   0  0  0  0  0  0  0  0  0  0  0  0
   10.4972   -3.8968   24.1589 C   0  0  0  0  0  0  0  0  0  0  0  0
    5.9260   -8.2736   16.5517 C   0  0  0  0  0  0  0  0  0  0  0  0
    3.8816   -9.1166   17.2493 C   0  0  0  0  0  0  0  0  0  0  0  0
   10.1297   -1.6575   23.2324 C   0  0  0  0  0  0  0  0  0  0  0  0
    9.4684   -1.6929   26.7263 F   0  0  0  0  0  0  0  0  0  0  0  0
    7.7963   -7.7906   17.9837 C   0  0  0  0  0  0  0  0  0  0  0  0
   10.5884   -3.0725   16.7902 O   0  0  0  0  0  0  0  0  0  0  0  0
   10.4323   -5.3494   20.3516 C   0  0  0  0  0  0  0  0  0  0  0  0
    7.1156   -7.5454   16.8218 C   0  0  0  0  0  0  0  0  0  0  0  0
   10.3885   -4.4388   19.2773 C   0  0  0  0  0  0  0  0  0  0  0  0
    4.5160   -9.3822   15.0841 C   0  0  0  0  0  0  0  0  0  0  0  0
  1  3  4  0
  1 24  4  0
  2  6  4  0
  2 15  4  0
  3  5  4  0
  3  6  4  0
  4 21  4  0
  4 29  4  0
  5 15  4  0
  5 28  1  0
  6 16  4  0
  7 18  4  0
  7 26  4  0
  8 18  1  0
  8 19  4  0
  8 22  4  0
  9 12  4  0
  9 19  4  0
 10 12  4  0
 10 22  4  0
 11 20  4  0
 11 21  4  0
 12 23  1  0
 13 20  4  0
 13 29  4  0
 14 17  4  0
 14 28  4  0
 15 25  2  0
 16 27  4  0
 17 18  4  0
 20 27  1  0
 24 27  4  0
 26 28  4  0
M  END
$$$$

 Created by Python create_sdf_string function

 29 33  0  0  0  0  0  0  0  0999 V2000
    8.8270   -7.0288   18.4251 C   0  0  0  0  0  0  0  0  0  0  0  0
    9.1576   -4.6236   15.8860 O   0  0  0  0  0  0  0  0  0  0  0  0
    9.1509   -5.9108   17.7177 C   0  0  0  0  0  0  0  0  0  0  0  0
    3.6373   -9.5349   16.0582 N   0  0  0  0  0  0  0  0  0  0  0  0
    9.9275   -4.8001   18.0438 N   0  0  0  0  0  0  0  0  0  0  0  0
    8.5908   -5.7425   16.4412 C   0  0  0  0  0  0  0  0  0  0  0  0
   10.5993   -4.8981   21.6068 C   0  0  0  0  0  0  0  0  0  0  0  0
   10.4258   -3.0106   23.0998 C   0  0  0  0  0  0  0  0  0  0  0  0
   10.2148   -3.4364   25.4200 C   0  0  0  0  0  0  0  0  0  0  0  0
    9.7853   -1.1840   24.4927 C   0  0  0  0  0  0  0  0  0  0  0  0
    5.0276   -8.5227   17.5352 C   0  0  0  0  0  0  0  0  0  0  0  0
    9.8187   -2.0895   25.5800 C   0  0  0  0  0  0  0  0  0  0  0  0
    5.6473   -8.7216   15.3158 C   0  0  0  0  0  0  0  0  0  0  0  0
   10.7581   -3.1233   19.4720 N   0  0  0  0  0  0  0  0  0  0  0  0
    9.9571   -4.0573   16.8866 C   0  0  0  0  0  0  0  0  0  0  0  0
    7.6213   -6.5618   16.0087 C   0  0  0  0  0  0  0  0  0  0  0  0
   10.8583   -2.6527   20.7222 C   0  0  0  0  0  0  0  0  0  0  0  0
   10.6412   -3.5089   21.7936 C   0  0  0  0  0  0  0  0  0  0  0  0
   10.4972   -3.8968   24.1589 C   0  0  0  0  0  0  0  0  0  0  0  0
    5.9260   -8.2736   16.5517 C   0  0  0  0  0  0  0  0  0  0  0  0
    3.8816   -9.1166   17.2493 C   0  0  0  0  0  0  0  0  0  0  0  0
   10.1297   -1.6575   23.2324 C   0  0  0  0  0  0  0  0  0  0  0  0
    9.4684   -1.6929   26.7263 F   0  0  0  0  0  0  0  0  0  0  0  0
    7.7963   -7.7906   17.9837 C   0  0  0  0  0  0  0  0  0  0  0  0
   10.5884   -3.0725   16.7902 O   0  0  0  0  0  0  0  0  0  0  0  0
   10.4323   -5.3494   20.3516 C   0  0  0  0  0  0  0  0  0  0  0  0
    7.1156   -7.5454   16.8218 C   0  0  0  0  0  0  0  0  0  0  0  0
   10.3885   -4.4388   19.2773 C   0  0  0  0  0  0  0  0  0  0  0  0
    4.5160   -9.3822   15.0841 C   0  0  0  0  0  0  0  0  0  0  0  0
  1  3  4  0
  1 24  4  0
  2  6  4  0
  2 15  4  0
  3  5  4  0
  3  6  4  0
  4 21  4  0
  4 29  4  0
  5 15  4  0
  5 28  1  0
  6 16  4  0
  7 18  4  0
  7 26  4  0
  8 18  1  0
  8 19  4  0
  8 22  4  0
  9 12  4  0
  9 19  4  0
 10 12  4  0
 10 22  4  0
 11 20  4  0
 11 21  4  0
 12 23  1  0
 13 20  4  0
 13 29  4  0
 14 17  4  0
 14 28  4  0
 15 25  2  0
 16 27  4  0
 17 18  4  0
 20 27  1  0
 24 27  4  0
 26 28  4  0
M  END
$$$$

 Created by Python create_sdf_string function

 29 33  0  0  0  0  0  0  0  0999 V2000
    8.8270   -7.0288   18.4251 C   0  0  0  0  0  0  0  0  0  0  0  0
    9.1576   -4.6236   15.8860 O   0  0  0  0  0  0  0  0  0  0  0  0
    9.1509   -5.9108   17.7177 C   0  0  0  0  0  0  0  0  0  0  0  0
    3.6373   -9.5349   16.0582 N   0  0  0  0  0  0  0  0  0  0  0  0
    9.9275   -4.8001   18.0438 N   0  0  0  0  0  0  0  0  0  0  0  0
    8.5908   -5.7425   16.4412 C   0  0  0  0  0  0  0  0  0  0  0  0
   10.5993   -4.8981   21.6068 C   0  0  0  0  0  0  0  0  0  0  0  0
   10.4258   -3.0106   23.0998 C   0  0  0  0  0  0  0  0  0  0  0  0
   10.2148   -3.4364   25.4200 C   0  0  0  0  0  0  0  0  0  0  0  0
    9.7853   -1.1840   24.4927 C   0  0  0  0  0  0  0  0  0  0  0  0
    5.0276   -8.5227   17.5352 C   0  0  0  0  0  0  0  0  0  0  0  0
    9.8187   -2.0895   25.5800 C   0  0  0  0  0  0  0  0  0  0  0  0
    5.6473   -8.7216   15.3158 C   0  0  0  0  0  0  0  0  0  0  0  0
   10.7581   -3.1233   19.4720 N   0  0  0  0  0  0  0  0  0  0  0  0
    9.9571   -4.0573   16.8866 C   0  0  0  0  0  0  0  0  0  0  0  0
    7.6213   -6.5618   16.0087 C   0  0  0  0  0  0  0  0  0  0  0  0
   10.8583   -2.6527   20.7222 C   0  0  0  0  0  0  0  0  0  0  0  0
   10.6412   -3.5089   21.7936 C   0  0  0  0  0  0  0  0  0  0  0  0
   10.4972   -3.8968   24.1589 C   0  0  0  0  0  0  0  0  0  0  0  0
    5.9260   -8.2736   16.5517 C   0  0  0  0  0  0  0  0  0  0  0  0
    3.8816   -9.1166   17.2493 C   0  0  0  0  0  0  0  0  0  0  0  0
   10.1297   -1.6575   23.2324 C   0  0  0  0  0  0  0  0  0  0  0  0
    9.4684   -1.6929   26.7263 F   0  0  0  0  0  0  0  0  0  0  0  0
    7.7963   -7.7906   17.9837 C   0  0  0  0  0  0  0  0  0  0  0  0
   10.5884   -3.0725   16.7902 O   0  0  0  0  0  0  0  0  0  0  0  0
   10.4323   -5.3494   20.3516 C   0  0  0  0  0  0  0  0  0  0  0  0
    7.1156   -7.5454   16.8218 C   0  0  0  0  0  0  0  0  0  0  0  0
   10.3885   -4.4388   19.2773 C   0  0  0  0  0  0  0  0  0  0  0  0
    4.5160   -9.3822   15.0841 C   0  0  0  0  0  0  0  0  0  0  0  0
  1  3  4  0
  1 24  4  0
  2  6  4  0
  2 15  4  0
  3  5  4  0
  3  6  4  0
  4 21  4  0
  4 29  4  0
  5 15  4  0
  5 28  1  0
  6 16  4  0
  7 18  4  0
  7 26  4  0
  8 18  1  0
  8 19  4  0
  8 22  4  0
  9 12  4  0
  9 19  4  0
 10 12  4  0
 10 22  4  0
 11 20  4  0
 11 21  4  0
 12 23  1  0
 13 20  4  0
 13 29  4  0
 14 17  4  0
 14 28  4  0
 15 25  2  0
 16 27  4  0
 17 18  4  0
 20 27  1  0
 24 27  4  0
 26 28  4  0
M  END
$$$$

 Created by Python create_sdf_string function

 29 33  0  0  0  0  0  0  0  0999 V2000
    8.8270   -7.0288   18.4251 C   0  0  0  0  0  0  0  0  0  0  0  0
    9.1576   -4.6236   15.8860 O   0  0  0  0  0  0  0  0  0  0  0  0
    9.1509   -5.9108   17.7177 C   0  0  0  0  0  0  0  0  0  0  0  0
    3.6373   -9.5349   16.0582 N   0  0  0  0  0  0  0  0  0  0  0  0
    9.9275   -4.8001   18.0438 N   0  0  0  0  0  0  0  0  0  0  0  0
    8.5908   -5.7425   16.4412 C   0  0  0  0  0  0  0  0  0  0  0  0
   10.5993   -4.8981   21.6068 C   0  0  0  0  0  0  0  0  0  0  0  0
   10.4258   -3.0106   23.0998 C   0  0  0  0  0  0  0  0  0  0  0  0
   10.2148   -3.4364   25.4200 C   0  0  0  0  0  0  0  0  0  0  0  0
    9.7853   -1.1840   24.4927 C   0  0  0  0  0  0  0  0  0  0  0  0
    5.0276   -8.5227   17.5352 C   0  0  0  0  0  0  0  0  0  0  0  0
    9.8187   -2.0895   25.5800 C   0  0  0  0  0  0  0  0  0  0  0  0
    5.6473   -8.7216   15.3158 C   0  0  0  0  0  0  0  0  0  0  0  0
   10.7581   -3.1233   19.4720 N   0  0  0  0  0  0  0  0  0  0  0  0
    9.9571   -4.0573   16.8866 C   0  0  0  0  0  0  0  0  0  0  0  0
    7.6213   -6.5618   16.0087 C   0  0  0  0  0  0  0  0  0  0  0  0
   10.8583   -2.6527   20.7222 C   0  0  0  0  0  0  0  0  0  0  0  0
   10.6412   -3.5089   21.7936 C   0  0  0  0  0  0  0  0  0  0  0  0
   10.4972   -3.8968   24.1589 C   0  0  0  0  0  0  0  0  0  0  0  0
    5.9260   -8.2736   16.5517 C   0  0  0  0  0  0  0  0  0  0  0  0
    3.8816   -9.1166   17.2493 C   0  0  0  0  0  0  0  0  0  0  0  0
   10.1297   -1.6575   23.2324 C   0  0  0  0  0  0  0  0  0  0  0  0
    9.4684   -1.6929   26.7263 F   0  0  0  0  0  0  0  0  0  0  0  0
    7.7963   -7.7906   17.9837 C   0  0  0  0  0  0  0  0  0  0  0  0
   10.5884   -3.0725   16.7902 O   0  0  0  0  0  0  0  0  0  0  0  0
   10.4323   -5.3494   20.3516 C   0  0  0  0  0  0  0  0  0  0  0  0
    7.1156   -7.5454   16.8218 C   0  0  0  0  0  0  0  0  0  0  0  0
   10.3885   -4.4388   19.2773 C   0  0  0  0  0  0  0  0  0  0  0  0
    4.5160   -9.3822   15.0841 C   0  0  0  0  0  0  0  0  0  0  0  0
  1  3  4  0
  1 24  4  0
  2  6  4  0
  2 15  4  0
  3  5  4  0
  3  6  4  0
  4 21  4  0
  4 29  4  0
  5 15  4  0
  5 28  1  0
  6 16  4  0
  7 18  4  0
  7 26  4  0
  8 18  1  0
  8 19  4  0
  8 22  4  0
  9 12  4  0
  9 19  4  0
 10 12  4  0
 10 22  4  0
 11 20  4  0
 11 21  4  0
 12 23  1  0
 13 20  4  0
 13 29  4  0
 14 17  4  0
 14 28  4  0
 15 25  2  0
 16 27  4  0
 17 18  4  0
 20 27  1  0
 24 27  4  0
 26 28  4  0
M  END
$$$$

 Created by Python create_sdf_string function

 29 33  0  0  0  0  0  0  0  0999 V2000
    8.8270   -7.0288   18.4251 C   0  0  0  0  0  0  0  0  0  0  0  0
    9.1576   -4.6236   15.8860 O   0  0  0  0  0  0  0  0  0  0  0  0
    9.1509   -5.9108   17.7177 C   0  0  0  0  0  0  0  0  0  0  0  0
    3.6373   -9.5349   16.0582 N   0  0  0  0  0  0  0  0  0  0  0  0
    9.9275   -4.8001   18.0438 N   0  0  0  0  0  0  0  0  0  0  0  0
    8.5908   -5.7425   16.4412 C   0  0  0  0  0  0  0  0  0  0  0  0
   10.5993   -4.8981   21.6068 C   0  0  0  0  0  0  0  0  0  0  0  0
   10.4258   -3.0106   23.0998 C   0  0  0  0  0  0  0  0  0  0  0  0
   10.2148   -3.4364   25.4200 C   0  0  0  0  0  0  0  0  0  0  0  0
    9.7853   -1.1840   24.4927 C   0  0  0  0  0  0  0  0  0  0  0  0
    5.0276   -8.5227   17.5352 C   0  0  0  0  0  0  0  0  0  0  0  0
    9.8187   -2.0895   25.5800 C   0  0  0  0  0  0  0  0  0  0  0  0
    5.6473   -8.7216   15.3158 C   0  0  0  0  0  0  0  0  0  0  0  0
   10.7581   -3.1233   19.4720 N   0  0  0  0  0  0  0  0  0  0  0  0
    9.9571   -4.0573   16.8866 C   0  0  0  0  0  0  0  0  0  0  0  0
    7.6213   -6.5618   16.0087 C   0  0  0  0  0  0  0  0  0  0  0  0
   10.8583   -2.6527   20.7222 C   0  0  0  0  0  0  0  0  0  0  0  0
   10.6412   -3.5089   21.7936 C   0  0  0  0  0  0  0  0  0  0  0  0
   10.4972   -3.8968   24.1589 C   0  0  0  0  0  0  0  0  0  0  0  0
    5.9260   -8.2736   16.5517 C   0  0  0  0  0  0  0  0  0  0  0  0
    3.8816   -9.1166   17.2493 C   0  0  0  0  0  0  0  0  0  0  0  0
   10.1297   -1.6575   23.2324 C   0  0  0  0  0  0  0  0  0  0  0  0
    9.4684   -1.6929   26.7263 F   0  0  0  0  0  0  0  0  0  0  0  0
    7.7963   -7.7906   17.9837 C   0  0  0  0  0  0  0  0  0  0  0  0
   10.5884   -3.0725   16.7902 O   0  0  0  0  0  0  0  0  0  0  0  0
   10.4323   -5.3494   20.3516 C   0  0  0  0  0  0  0  0  0  0  0  0
    7.1156   -7.5454   16.8218 C   0  0  0  0  0  0  0  0  0  0  0  0
   10.3885   -4.4388   19.2773 C   0  0  0  0  0  0  0  0  0  0  0  0
    4.5160   -9.3822   15.0841 C   0  0  0  0  0  0  0  0  0  0  0  0
  1  3  4  0
  1 24  4  0
  2  6  4  0
  2 15  4  0
  3  5  4  0
  3  6  4  0
  4 21  4  0
  4 29  4  0
  5 15  4  0
  5 28  1  0
  6 16  4  0
  7 18  4  0
  7 26  4  0
  8 18  1  0
  8 19  4  0
  8 22  4  0
  9 12  4  0
  9 19  4  0
 10 12  4  0
 10 22  4  0
 11 20  4  0
 11 21  4  0
 12 23  1  0
 13 20  4  0
 13 29  4  0
 14 17  4  0
 14 28  4  0
 15 25  2  0
 16 27  4  0
 17 18  4  0
 20 27  1  0
 24 27  4  0
 26 28  4  0
M  END
$$$$

 Created by Python create_sdf_string function

 29 33  0  0  0  0  0  0  0  0999 V2000
    8.8270   -7.0288   18.4251 C   0  0  0  0  0  0  0  0  0  0  0  0
    9.1576   -4.6236   15.8860 O   0  0  0  0  0  0  0  0  0  0  0  0
    9.1509   -5.9108   17.7177 C   0  0  0  0  0  0  0  0  0  0  0  0
    3.6373   -9.5349   16.0582 N   0  0  0  0  0  0  0  0  0  0  0  0
    9.9275   -4.8001   18.0438 N   0  0  0  0  0  0  0  0  0  0  0  0
    8.5908   -5.7425   16.4412 C   0  0  0  0  0  0  0  0  0  0  0  0
   10.5993   -4.8981   21.6068 C   0  0  0  0  0  0  0  0  0  0  0  0
   10.4258   -3.0106   23.0998 C   0  0  0  0  0  0  0  0  0  0  0  0
   10.2148   -3.4364   25.4200 C   0  0  0  0  0  0  0  0  0  0  0  0
    9.7853   -1.1840   24.4927 C   0  0  0  0  0  0  0  0  0  0  0  0
    5.0276   -8.5227   17.5352 C   0  0  0  0  0  0  0  0  0  0  0  0
    9.8187   -2.0895   25.5800 C   0  0  0  0  0  0  0  0  0  0  0  0
    5.6473   -8.7216   15.3158 C   0  0  0  0  0  0  0  0  0  0  0  0
   10.7581   -3.1233   19.4720 N   0  0  0  0  0  0  0  0  0  0  0  0
    9.9571   -4.0573   16.8866 C   0  0  0  0  0  0  0  0  0  0  0  0
    7.6213   -6.5618   16.0087 C   0  0  0  0  0  0  0  0  0  0  0  0
   10.8583   -2.6527   20.7222 C   0  0  0  0  0  0  0  0  0  0  0  0
   10.6412   -3.5089   21.7936 C   0  0  0  0  0  0  0  0  0  0  0  0
   10.4972   -3.8968   24.1589 C   0  0  0  0  0  0  0  0  0  0  0  0
    5.9260   -8.2736   16.5517 C   0  0  0  0  0  0  0  0  0  0  0  0
    3.8816   -9.1166   17.2493 C   0  0  0  0  0  0  0  0  0  0  0  0
   10.1297   -1.6575   23.2324 C   0  0  0  0  0  0  0  0  0  0  0  0
    9.4684   -1.6929   26.7263 F   0  0  0  0  0  0  0  0  0  0  0  0
    7.7963   -7.7906   17.9837 C   0  0  0  0  0  0  0  0  0  0  0  0
   10.5884   -3.0725   16.7902 O   0  0  0  0  0  0  0  0  0  0  0  0
   10.4323   -5.3494   20.3516 C   0  0  0  0  0  0  0  0  0  0  0  0
    7.1156   -7.5454   16.8218 C   0  0  0  0  0  0  0  0  0  0  0  0
   10.3885   -4.4388   19.2773 C   0  0  0  0  0  0  0  0  0  0  0  0
    4.5160   -9.3822   15.0841 C   0  0  0  0  0  0  0  0  0  0  0  0
  1  3  4  0
  1 24  4  0
  2  6  4  0
  2 15  4  0
  3  5  4  0
  3  6  4  0
  4 21  4  0
  4 29  4  0
  5 15  4  0
  5 28  1  0
  6 16  4  0
  7 18  4  0
  7 26  4  0
  8 18  1  0
  8 19  4  0
  8 22  4  0
  9 12  4  0
  9 19  4  0
 10 12  4  0
 10 22  4  0
 11 20  4  0
 11 21  4  0
 12 23  1  0
 13 20  4  0
 13 29  4  0
 14 17  4  0
 14 28  4  0
 15 25  2  0
 16 27  4  0
 17 18  4  0
 20 27  1  0
 24 27  4  0
 26 28  4  0
M  END
$$$$

 Created by Python create_sdf_string function

 29 33  0  0  0  0  0  0  0  0999 V2000
    8.8270   -7.0288   18.4251 C   0  0  0  0  0  0  0  0  0  0  0  0
    9.1576   -4.6236   15.8860 O   0  0  0  0  0  0  0  0  0  0  0  0
    9.1509   -5.9108   17.7177 C   0  0  0  0  0  0  0  0  0  0  0  0
    3.6373   -9.5349   16.0582 N   0  0  0  0  0  0  0  0  0  0  0  0
    9.9275   -4.8001   18.0438 N   0  0  0  0  0  0  0  0  0  0  0  0
    8.5908   -5.7425   16.4412 C   0  0  0  0  0  0  0  0  0  0  0  0
   10.5993   -4.8981   21.6068 C   0  0  0  0  0  0  0  0  0  0  0  0
   10.4258   -3.0106   23.0998 C   0  0  0  0  0  0  0  0  0  0  0  0
   10.2148   -3.4364   25.4200 C   0  0  0  0  0  0  0  0  0  0  0  0
    9.7853   -1.1840   24.4927 C   0  0  0  0  0  0  0  0  0  0  0  0
    5.0276   -8.5227   17.5352 C   0  0  0  0  0  0  0  0  0  0  0  0
    9.8187   -2.0895   25.5800 C   0  0  0  0  0  0  0  0  0  0  0  0
    5.6473   -8.7216   15.3158 C   0  0  0  0  0  0  0  0  0  0  0  0
   10.7581   -3.1233   19.4720 N   0  0  0  0  0  0  0  0  0  0  0  0
    9.9571   -4.0573   16.8866 C   0  0  0  0  0  0  0  0  0  0  0  0
    7.6213   -6.5618   16.0087 C   0  0  0  0  0  0  0  0  0  0  0  0
   10.8583   -2.6527   20.7222 C   0  0  0  0  0  0  0  0  0  0  0  0
   10.6412   -3.5089   21.7936 C   0  0  0  0  0  0  0  0  0  0  0  0
   10.4972   -3.8968   24.1589 C   0  0  0  0  0  0  0  0  0  0  0  0
    5.9260   -8.2736   16.5517 C   0  0  0  0  0  0  0  0  0  0  0  0
    3.8816   -9.1166   17.2493 C   0  0  0  0  0  0  0  0  0  0  0  0
   10.1297   -1.6575   23.2324 C   0  0  0  0  0  0  0  0  0  0  0  0
    9.4684   -1.6929   26.7263 F   0  0  0  0  0  0  0  0  0  0  0  0
    7.7963   -7.7906   17.9837 C   0  0  0  0  0  0  0  0  0  0  0  0
   10.5884   -3.0725   16.7902 O   0  0  0  0  0  0  0  0  0  0  0  0
   10.4323   -5.3494   20.3516 C   0  0  0  0  0  0  0  0  0  0  0  0
    7.1156   -7.5454   16.8218 C   0  0  0  0  0  0  0  0  0  0  0  0
   10.3885   -4.4388   19.2773 C   0  0  0  0  0  0  0  0  0  0  0  0
    4.5160   -9.3822   15.0841 C   0  0  0  0  0  0  0  0  0  0  0  0
  1  3  4  0
  1 24  4  0
  2  6  4  0
  2 15  4  0
  3  5  4  0
  3  6  4  0
  4 21  4  0
  4 29  4  0
  5 15  4  0
  5 28  1  0
  6 16  4  0
  7 18  4  0
  7 26  4  0
  8 18  1  0
  8 19  4  0
  8 22  4  0
  9 12  4  0
  9 19  4  0
 10 12  4  0
 10 22  4  0
 11 20  4  0
 11 21  4  0
 12 23  1  0
 13 20  4  0
 13 29  4  0
 14 17  4  0
 14 28  4  0
 15 25  2  0
 16 27  4  0
 17 18  4  0
 20 27  1  0
 24 27  4  0
 26 28  4  0
M  END
$$$$

 Created by Python create_sdf_string function

 29 33  0  0  0  0  0  0  0  0999 V2000
    8.8270   -7.0288   18.4251 C   0  0  0  0  0  0  0  0  0  0  0  0
    9.1576   -4.6236   15.8860 O   0  0  0  0  0  0  0  0  0  0  0  0
    9.1509   -5.9108   17.7177 C   0  0  0  0  0  0  0  0  0  0  0  0
    3.6373   -9.5349   16.0582 N   0  0  0  0  0  0  0  0  0  0  0  0
    9.9275   -4.8001   18.0438 N   0  0  0  0  0  0  0  0  0  0  0  0
    8.5908   -5.7425   16.4412 C   0  0  0  0  0  0  0  0  0  0  0  0
   10.5993   -4.8981   21.6068 C   0  0  0  0  0  0  0  0  0  0  0  0
   10.4258   -3.0106   23.0998 C   0  0  0  0  0  0  0  0  0  0  0  0
   10.2148   -3.4364   25.4200 C   0  0  0  0  0  0  0  0  0  0  0  0
    9.7853   -1.1840   24.4927 C   0  0  0  0  0  0  0  0  0  0  0  0
    5.0276   -8.5227   17.5352 C   0  0  0  0  0  0  0  0  0  0  0  0
    9.8187   -2.0895   25.5800 C   0  0  0  0  0  0  0  0  0  0  0  0
    5.6473   -8.7216   15.3158 C   0  0  0  0  0  0  0  0  0  0  0  0
   10.7581   -3.1233   19.4720 N   0  0  0  0  0  0  0  0  0  0  0  0
    9.9571   -4.0573   16.8866 C   0  0  0  0  0  0  0  0  0  0  0  0
    7.6213   -6.5618   16.0087 C   0  0  0  0  0  0  0  0  0  0  0  0
   10.8583   -2.6527   20.7222 C   0  0  0  0  0  0  0  0  0  0  0  0
   10.6412   -3.5089   21.7936 C   0  0  0  0  0  0  0  0  0  0  0  0
   10.4972   -3.8968   24.1589 C   0  0  0  0  0  0  0  0  0  0  0  0
    5.9260   -8.2736   16.5517 C   0  0  0  0  0  0  0  0  0  0  0  0
    3.8816   -9.1166   17.2493 C   0  0  0  0  0  0  0  0  0  0  0  0
   10.1297   -1.6575   23.2324 C   0  0  0  0  0  0  0  0  0  0  0  0
    9.4684   -1.6929   26.7263 F   0  0  0  0  0  0  0  0  0  0  0  0
    7.7963   -7.7906   17.9837 C   0  0  0  0  0  0  0  0  0  0  0  0
   10.5884   -3.0725   16.7902 O   0  0  0  0  0  0  0  0  0  0  0  0
   10.4323   -5.3494   20.3516 C   0  0  0  0  0  0  0  0  0  0  0  0
    7.1156   -7.5454   16.8218 C   0  0  0  0  0  0  0  0  0  0  0  0
   10.3885   -4.4388   19.2773 C   0  0  0  0  0  0  0  0  0  0  0  0
    4.5160   -9.3822   15.0841 C   0  0  0  0  0  0  0  0  0  0  0  0
  1  3  4  0
  1 24  4  0
  2  6  4  0
  2 15  4  0
  3  5  4  0
  3  6  4  0
  4 21  4  0
  4 29  4  0
  5 15  4  0
  5 28  1  0
  6 16  4  0
  7 18  4  0
  7 26  4  0
  8 18  1  0
  8 19  4  0
  8 22  4  0
  9 12  4  0
  9 19  4  0
 10 12  4  0
 10 22  4  0
 11 20  4  0
 11 21  4  0
 12 23  1  0
 13 20  4  0
 13 29  4  0
 14 17  4  0
 14 28  4  0
 15 25  2  0
 16 27  4  0
 17 18  4  0
 20 27  1  0
 24 27  4  0
 26 28  4  0
M  END
$$$$

 Created by Python create_sdf_string function

 29 33  0  0  0  0  0  0  0  0999 V2000
    8.8270   -7.0288   18.4251 C   0  0  0  0  0  0  0  0  0  0  0  0
    9.1576   -4.6236   15.8860 O   0  0  0  0  0  0  0  0  0  0  0  0
    9.1509   -5.9108   17.7177 C   0  0  0  0  0  0  0  0  0  0  0  0
    3.6373   -9.5349   16.0582 N   0  0  0  0  0  0  0  0  0  0  0  0
    9.9275   -4.8001   18.0438 N   0  0  0  0  0  0  0  0  0  0  0  0
    8.5908   -5.7425   16.4412 C   0  0  0  0  0  0  0  0  0  0  0  0
   10.5993   -4.8981   21.6068 C   0  0  0  0  0  0  0  0  0  0  0  0
   10.4258   -3.0106   23.0998 C   0  0  0  0  0  0  0  0  0  0  0  0
   10.2148   -3.4364   25.4200 C   0  0  0  0  0  0  0  0  0  0  0  0
    9.7853   -1.1840   24.4927 C   0  0  0  0  0  0  0  0  0  0  0  0
    5.0276   -8.5227   17.5352 C   0  0  0  0  0  0  0  0  0  0  0  0
    9.8187   -2.0895   25.5800 C   0  0  0  0  0  0  0  0  0  0  0  0
    5.6473   -8.7216   15.3158 C   0  0  0  0  0  0  0  0  0  0  0  0
   10.7581   -3.1233   19.4720 N   0  0  0  0  0  0  0  0  0  0  0  0
    9.9571   -4.0573   16.8866 C   0  0  0  0  0  0  0  0  0  0  0  0
    7.6213   -6.5618   16.0087 C   0  0  0  0  0  0  0  0  0  0  0  0
   10.8583   -2.6527   20.7222 C   0  0  0  0  0  0  0  0  0  0  0  0
   10.6412   -3.5089   21.7936 C   0  0  0  0  0  0  0  0  0  0  0  0
   10.4972   -3.8968   24.1589 C   0  0  0  0  0  0  0  0  0  0  0  0
    5.9260   -8.2736   16.5517 C   0  0  0  0  0  0  0  0  0  0  0  0
    3.8816   -9.1166   17.2493 C   0  0  0  0  0  0  0  0  0  0  0  0
   10.1297   -1.6575   23.2324 C   0  0  0  0  0  0  0  0  0  0  0  0
    9.4684   -1.6929   26.7263 F   0  0  0  0  0  0  0  0  0  0  0  0
    7.7963   -7.7906   17.9837 C   0  0  0  0  0  0  0  0  0  0  0  0
   10.5884   -3.0725   16.7902 O   0  0  0  0  0  0  0  0  0  0  0  0
   10.4323   -5.3494   20.3516 C   0  0  0  0  0  0  0  0  0  0  0  0
    7.1156   -7.5454   16.8218 C   0  0  0  0  0  0  0  0  0  0  0  0
   10.3885   -4.4388   19.2773 C   0  0  0  0  0  0  0  0  0  0  0  0
    4.5160   -9.3822   15.0841 C   0  0  0  0  0  0  0  0  0  0  0  0
  1  3  4  0
  1 24  4  0
  2  6  4  0
  2 15  4  0
  3  5  4  0
  3  6  4  0
  4 21  4  0
  4 29  4  0
  5 15  4  0
  5 28  1  0
  6 16  4  0
  7 18  4  0
  7 26  4  0
  8 18  1  0
  8 19  4  0
  8 22  4  0
  9 12  4  0
  9 19  4  0
 10 12  4  0
 10 22  4  0
 11 20  4  0
 11 21  4  0
 12 23  1  0
 13 20  4  0
 13 29  4  0
 14 17  4  0
 14 28  4  0
 15 25  2  0
 16 27  4  0
 17 18  4  0
 20 27  1  0
 24 27  4  0
 26 28  4  0
M  END
$$$$

 Created by Python create_sdf_string function

 29 33  0  0  0  0  0  0  0  0999 V2000
    8.8270   -7.0288   18.4251 C   0  0  0  0  0  0  0  0  0  0  0  0
    9.1576   -4.6236   15.8860 O   0  0  0  0  0  0  0  0  0  0  0  0
    9.1509   -5.9108   17.7177 C   0  0  0  0  0  0  0  0  0  0  0  0
    3.6373   -9.5349   16.0582 N   0  0  0  0  0  0  0  0  0  0  0  0
    9.9275   -4.8001   18.0438 N   0  0  0  0  0  0  0  0  0  0  0  0
    8.5908   -5.7425   16.4412 C   0  0  0  0  0  0  0  0  0  0  0  0
   10.5993   -4.8981   21.6068 C   0  0  0  0  0  0  0  0  0  0  0  0
   10.4258   -3.0106   23.0998 C   0  0  0  0  0  0  0  0  0  0  0  0
   10.2148   -3.4364   25.4200 C   0  0  0  0  0  0  0  0  0  0  0  0
    9.7853   -1.1840   24.4927 C   0  0  0  0  0  0  0  0  0  0  0  0
    5.0276   -8.5227   17.5352 C   0  0  0  0  0  0  0  0  0  0  0  0
    9.8187   -2.0895   25.5800 C   0  0  0  0  0  0  0  0  0  0  0  0
    5.6473   -8.7216   15.3158 C   0  0  0  0  0  0  0  0  0  0  0  0
   10.7581   -3.1233   19.4720 N   0  0  0  0  0  0  0  0  0  0  0  0
    9.9571   -4.0573   16.8866 C   0  0  0  0  0  0  0  0  0  0  0  0
    7.6213   -6.5618   16.0087 C   0  0  0  0  0  0  0  0  0  0  0  0
   10.8583   -2.6527   20.7222 C   0  0  0  0  0  0  0  0  0  0  0  0
   10.6412   -3.5089   21.7936 C   0  0  0  0  0  0  0  0  0  0  0  0
   10.4972   -3.8968   24.1589 C   0  0  0  0  0  0  0  0  0  0  0  0
    5.9260   -8.2736   16.5517 C   0  0  0  0  0  0  0  0  0  0  0  0
    3.8816   -9.1166   17.2493 C   0  0  0  0  0  0  0  0  0  0  0  0
   10.1297   -1.6575   23.2324 C   0  0  0  0  0  0  0  0  0  0  0  0
    9.4684   -1.6929   26.7263 F   0  0  0  0  0  0  0  0  0  0  0  0
    7.7963   -7.7906   17.9837 C   0  0  0  0  0  0  0  0  0  0  0  0
   10.5884   -3.0725   16.7902 O   0  0  0  0  0  0  0  0  0  0  0  0
   10.4323   -5.3494   20.3516 C   0  0  0  0  0  0  0  0  0  0  0  0
    7.1156   -7.5454   16.8218 C   0  0  0  0  0  0  0  0  0  0  0  0
   10.3885   -4.4388   19.2773 C   0  0  0  0  0  0  0  0  0  0  0  0
    4.5160   -9.3822   15.0841 C   0  0  0  0  0  0  0  0  0  0  0  0
  1  3  4  0
  1 24  4  0
  2  6  4  0
  2 15  4  0
  3  5  4  0
  3  6  4  0
  4 21  4  0
  4 29  4  0
  5 15  4  0
  5 28  1  0
  6 16  4  0
  7 18  4  0
  7 26  4  0
  8 18  1  0
  8 19  4  0
  8 22  4  0
  9 12  4  0
  9 19  4  0
 10 12  4  0
 10 22  4  0
 11 20  4  0
 11 21  4  0
 12 23  1  0
 13 20  4  0
 13 29  4  0
 14 17  4  0
 14 28  4  0
 15 25  2  0
 16 27  4  0
 17 18  4  0
 20 27  1  0
 24 27  4  0
 26 28  4  0
M  END
$$$$

 Created by Python create_sdf_string function

 29 33  0  0  0  0  0  0  0  0999 V2000
    8.8270   -7.0288   18.4251 C   0  0  0  0  0  0  0  0  0  0  0  0
    9.1576   -4.6236   15.8860 O   0  0  0  0  0  0  0  0  0  0  0  0
    9.1509   -5.9108   17.7177 C   0  0  0  0  0  0  0  0  0  0  0  0
    3.6373   -9.5349   16.0582 N   0  0  0  0  0  0  0  0  0  0  0  0
    9.9275   -4.8001   18.0438 N   0  0  0  0  0  0  0  0  0  0  0  0
    8.5908   -5.7425   16.4412 C   0  0  0  0  0  0  0  0  0  0  0  0
   10.5993   -4.8981   21.6068 C   0  0  0  0  0  0  0  0  0  0  0  0
   10.4258   -3.0106   23.0998 C   0  0  0  0  0  0  0  0  0  0  0  0
   10.2148   -3.4364   25.4200 C   0  0  0  0  0  0  0  0  0  0  0  0
    9.7853   -1.1840   24.4927 C   0  0  0  0  0  0  0  0  0  0  0  0
    5.0276   -8.5227   17.5352 C   0  0  0  0  0  0  0  0  0  0  0  0
    9.8187   -2.0895   25.5800 C   0  0  0  0  0  0  0  0  0  0  0  0
    5.6473   -8.7216   15.3158 C   0  0  0  0  0  0  0  0  0  0  0  0
   10.7581   -3.1233   19.4720 N   0  0  0  0  0  0  0  0  0  0  0  0
    9.9571   -4.0573   16.8866 C   0  0  0  0  0  0  0  0  0  0  0  0
    7.6213   -6.5618   16.0087 C   0  0  0  0  0  0  0  0  0  0  0  0
   10.8583   -2.6527   20.7222 C   0  0  0  0  0  0  0  0  0  0  0  0
   10.6412   -3.5089   21.7936 C   0  0  0  0  0  0  0  0  0  0  0  0
   10.4972   -3.8968   24.1589 C   0  0  0  0  0  0  0  0  0  0  0  0
    5.9260   -8.2736   16.5517 C   0  0  0  0  0  0  0  0  0  0  0  0
    3.8816   -9.1166   17.2493 C   0  0  0  0  0  0  0  0  0  0  0  0
   10.1297   -1.6575   23.2324 C   0  0  0  0  0  0  0  0  0  0  0  0
    9.4684   -1.6929   26.7263 F   0  0  0  0  0  0  0  0  0  0  0  0
    7.7963   -7.7906   17.9837 C   0  0  0  0  0  0  0  0  0  0  0  0
   10.5884   -3.0725   16.7902 O   0  0  0  0  0  0  0  0  0  0  0  0
   10.4323   -5.3494   20.3516 C   0  0  0  0  0  0  0  0  0  0  0  0
    7.1156   -7.5454   16.8218 C   0  0  0  0  0  0  0  0  0  0  0  0
   10.3885   -4.4388   19.2773 C   0  0  0  0  0  0  0  0  0  0  0  0
    4.5160   -9.3822   15.0841 C   0  0  0  0  0  0  0  0  0  0  0  0
  1  3  4  0
  1 24  4  0
  2  6  4  0
  2 15  4  0
  3  5  4  0
  3  6  4  0
  4 21  4  0
  4 29  4  0
  5 15  4  0
  5 28  1  0
  6 16  4  0
  7 18  4  0
  7 26  4  0
  8 18  1  0
  8 19  4  0
  8 22  4  0
  9 12  4  0
  9 19  4  0
 10 12  4  0
 10 22  4  0
 11 20  4  0
 11 21  4  0
 12 23  1  0
 13 20  4  0
 13 29  4  0
 14 17  4  0
 14 28  4  0
 15 25  2  0
 16 27  4  0
 17 18  4  0
 20 27  1  0
 24 27  4  0
 26 28  4  0
M  END
$$$$

 Created by Python create_sdf_string function

 29 33  0  0  0  0  0  0  0  0999 V2000
    8.8270   -7.0288   18.4251 C   0  0  0  0  0  0  0  0  0  0  0  0
    9.1576   -4.6236   15.8860 O   0  0  0  0  0  0  0  0  0  0  0  0
    9.1509   -5.9108   17.7177 C   0  0  0  0  0  0  0  0  0  0  0  0
    3.6373   -9.5349   16.0582 N   0  0  0  0  0  0  0  0  0  0  0  0
    9.9275   -4.8001   18.0438 N   0  0  0  0  0  0  0  0  0  0  0  0
    8.5908   -5.7425   16.4412 C   0  0  0  0  0  0  0  0  0  0  0  0
   10.5993   -4.8981   21.6068 C   0  0  0  0  0  0  0  0  0  0  0  0
   10.4258   -3.0106   23.0998 C   0  0  0  0  0  0  0  0  0  0  0  0
   10.2148   -3.4364   25.4200 C   0  0  0  0  0  0  0  0  0  0  0  0
    9.7853   -1.1840   24.4927 C   0  0  0  0  0  0  0  0  0  0  0  0
    5.0276   -8.5227   17.5352 C   0  0  0  0  0  0  0  0  0  0  0  0
    9.8187   -2.0895   25.5800 C   0  0  0  0  0  0  0  0  0  0  0  0
    5.6473   -8.7216   15.3158 C   0  0  0  0  0  0  0  0  0  0  0  0
   10.7581   -3.1233   19.4720 N   0  0  0  0  0  0  0  0  0  0  0  0
    9.9571   -4.0573   16.8866 C   0  0  0  0  0  0  0  0  0  0  0  0
    7.6213   -6.5618   16.0087 C   0  0  0  0  0  0  0  0  0  0  0  0
   10.8583   -2.6527   20.7222 C   0  0  0  0  0  0  0  0  0  0  0  0
   10.6412   -3.5089   21.7936 C   0  0  0  0  0  0  0  0  0  0  0  0
   10.4972   -3.8968   24.1589 C   0  0  0  0  0  0  0  0  0  0  0  0
    5.9260   -8.2736   16.5517 C   0  0  0  0  0  0  0  0  0  0  0  0
    3.8816   -9.1166   17.2493 C   0  0  0  0  0  0  0  0  0  0  0  0
   10.1297   -1.6575   23.2324 C   0  0  0  0  0  0  0  0  0  0  0  0
    9.4684   -1.6929   26.7263 F   0  0  0  0  0  0  0  0  0  0  0  0
    7.7963   -7.7906   17.9837 C   0  0  0  0  0  0  0  0  0  0  0  0
   10.5884   -3.0725   16.7902 O   0  0  0  0  0  0  0  0  0  0  0  0
   10.4323   -5.3494   20.3516 C   0  0  0  0  0  0  0  0  0  0  0  0
    7.1156   -7.5454   16.8218 C   0  0  0  0  0  0  0  0  0  0  0  0
   10.3885   -4.4388   19.2773 C   0  0  0  0  0  0  0  0  0  0  0  0
    4.5160   -9.3822   15.0841 C   0  0  0  0  0  0  0  0  0  0  0  0
  1  3  4  0
  1 24  4  0
  2  6  4  0
  2 15  4  0
  3  5  4  0
  3  6  4  0
  4 21  4  0
  4 29  4  0
  5 15  4  0
  5 28  1  0
  6 16  4  0
  7 18  4  0
  7 26  4  0
  8 18  1  0
  8 19  4  0
  8 22  4  0
  9 12  4  0
  9 19  4  0
 10 12  4  0
 10 22  4  0
 11 20  4  0
 11 21  4  0
 12 23  1  0
 13 20  4  0
 13 29  4  0
 14 17  4  0
 14 28  4  0
 15 25  2  0
 16 27  4  0
 17 18  4  0
 20 27  1  0
 24 27  4  0
 26 28  4  0
M  END
$$$$

 Created by Python create_sdf_string function

 29 33  0  0  0  0  0  0  0  0999 V2000
    8.8270   -7.0288   18.4251 C   0  0  0  0  0  0  0  0  0  0  0  0
    9.1576   -4.6236   15.8860 O   0  0  0  0  0  0  0  0  0  0  0  0
    9.1509   -5.9108   17.7177 C   0  0  0  0  0  0  0  0  0  0  0  0
    3.6373   -9.5349   16.0582 N   0  0  0  0  0  0  0  0  0  0  0  0
    9.9275   -4.8001   18.0438 N   0  0  0  0  0  0  0  0  0  0  0  0
    8.5908   -5.7425   16.4412 C   0  0  0  0  0  0  0  0  0  0  0  0
   10.5993   -4.8981   21.6068 C   0  0  0  0  0  0  0  0  0  0  0  0
   10.4258   -3.0106   23.0998 C   0  0  0  0  0  0  0  0  0  0  0  0
   10.2148   -3.4364   25.4200 C   0  0  0  0  0  0  0  0  0  0  0  0
    9.7853   -1.1840   24.4927 C   0  0  0  0  0  0  0  0  0  0  0  0
    5.0276   -8.5227   17.5352 C   0  0  0  0  0  0  0  0  0  0  0  0
    9.8187   -2.0895   25.5800 C   0  0  0  0  0  0  0  0  0  0  0  0
    5.6473   -8.7216   15.3158 C   0  0  0  0  0  0  0  0  0  0  0  0
   10.7581   -3.1233   19.4720 N   0  0  0  0  0  0  0  0  0  0  0  0
    9.9571   -4.0573   16.8866 C   0  0  0  0  0  0  0  0  0  0  0  0
    7.6213   -6.5618   16.0087 C   0  0  0  0  0  0  0  0  0  0  0  0
   10.8583   -2.6527   20.7222 C   0  0  0  0  0  0  0  0  0  0  0  0
   10.6412   -3.5089   21.7936 C   0  0  0  0  0  0  0  0  0  0  0  0
   10.4972   -3.8968   24.1589 C   0  0  0  0  0  0  0  0  0  0  0  0
    5.9260   -8.2736   16.5517 C   0  0  0  0  0  0  0  0  0  0  0  0
    3.8816   -9.1166   17.2493 C   0  0  0  0  0  0  0  0  0  0  0  0
   10.1297   -1.6575   23.2324 C   0  0  0  0  0  0  0  0  0  0  0  0
    9.4684   -1.6929   26.7263 F   0  0  0  0  0  0  0  0  0  0  0  0
    7.7963   -7.7906   17.9837 C   0  0  0  0  0  0  0  0  0  0  0  0
   10.5884   -3.0725   16.7902 O   0  0  0  0  0  0  0  0  0  0  0  0
   10.4323   -5.3494   20.3516 C   0  0  0  0  0  0  0  0  0  0  0  0
    7.1156   -7.5454   16.8218 C   0  0  0  0  0  0  0  0  0  0  0  0
   10.3885   -4.4388   19.2773 C   0  0  0  0  0  0  0  0  0  0  0  0
    4.5160   -9.3822   15.0841 C   0  0  0  0  0  0  0  0  0  0  0  0
  1  3  4  0
  1 24  4  0
  2  6  4  0
  2 15  4  0
  3  5  4  0
  3  6  4  0
  4 21  4  0
  4 29  4  0
  5 15  4  0
  5 28  1  0
  6 16  4  0
  7 18  4  0
  7 26  4  0
  8 18  1  0
  8 19  4  0
  8 22  4  0
  9 12  4  0
  9 19  4  0
 10 12  4  0
 10 22  4  0
 11 20  4  0
 11 21  4  0
 12 23  1  0
 13 20  4  0
 13 29  4  0
 14 17  4  0
 14 28  4  0
 15 25  2  0
 16 27  4  0
 17 18  4  0
 20 27  1  0
 24 27  4  0
 26 28  4  0
M  END
$$$$

 Created by Python create_sdf_string function

 29 33  0  0  0  0  0  0  0  0999 V2000
    8.8270   -7.0288   18.4251 C   0  0  0  0  0  0  0  0  0  0  0  0
    9.1576   -4.6236   15.8860 O   0  0  0  0  0  0  0  0  0  0  0  0
    9.1509   -5.9108   17.7177 C   0  0  0  0  0  0  0  0  0  0  0  0
    3.6373   -9.5349   16.0582 N   0  0  0  0  0  0  0  0  0  0  0  0
    9.9275   -4.8001   18.0438 N   0  0  0  0  0  0  0  0  0  0  0  0
    8.5908   -5.7425   16.4412 C   0  0  0  0  0  0  0  0  0  0  0  0
   10.5993   -4.8981   21.6068 C   0  0  0  0  0  0  0  0  0  0  0  0
   10.4258   -3.0106   23.0998 C   0  0  0  0  0  0  0  0  0  0  0  0
   10.2148   -3.4364   25.4200 C   0  0  0  0  0  0  0  0  0  0  0  0
    9.7853   -1.1840   24.4927 C   0  0  0  0  0  0  0  0  0  0  0  0
    5.0276   -8.5227   17.5352 C   0  0  0  0  0  0  0  0  0  0  0  0
    9.8187   -2.0895   25.5800 C   0  0  0  0  0  0  0  0  0  0  0  0
    5.6473   -8.7216   15.3158 C   0  0  0  0  0  0  0  0  0  0  0  0
   10.7581   -3.1233   19.4720 N   0  0  0  0  0  0  0  0  0  0  0  0
    9.9571   -4.0573   16.8866 C   0  0  0  0  0  0  0  0  0  0  0  0
    7.6213   -6.5618   16.0087 C   0  0  0  0  0  0  0  0  0  0  0  0
   10.8583   -2.6527   20.7222 C   0  0  0  0  0  0  0  0  0  0  0  0
   10.6412   -3.5089   21.7936 C   0  0  0  0  0  0  0  0  0  0  0  0
   10.4972   -3.8968   24.1589 C   0  0  0  0  0  0  0  0  0  0  0  0
    5.9260   -8.2736   16.5517 C   0  0  0  0  0  0  0  0  0  0  0  0
    3.8816   -9.1166   17.2493 C   0  0  0  0  0  0  0  0  0  0  0  0
   10.1297   -1.6575   23.2324 C   0  0  0  0  0  0  0  0  0  0  0  0
    9.4684   -1.6929   26.7263 F   0  0  0  0  0  0  0  0  0  0  0  0
    7.7963   -7.7906   17.9837 C   0  0  0  0  0  0  0  0  0  0  0  0
   10.5884   -3.0725   16.7902 O   0  0  0  0  0  0  0  0  0  0  0  0
   10.4323   -5.3494   20.3516 C   0  0  0  0  0  0  0  0  0  0  0  0
    7.1156   -7.5454   16.8218 C   0  0  0  0  0  0  0  0  0  0  0  0
   10.3885   -4.4388   19.2773 C   0  0  0  0  0  0  0  0  0  0  0  0
    4.5160   -9.3822   15.0841 C   0  0  0  0  0  0  0  0  0  0  0  0
  1  3  4  0
  1 24  4  0
  2  6  4  0
  2 15  4  0
  3  5  4  0
  3  6  4  0
  4 21  4  0
  4 29  4  0
  5 15  4  0
  5 28  1  0
  6 16  4  0
  7 18  4  0
  7 26  4  0
  8 18  1  0
  8 19  4  0
  8 22  4  0
  9 12  4  0
  9 19  4  0
 10 12  4  0
 10 22  4  0
 11 20  4  0
 11 21  4  0
 12 23  1  0
 13 20  4  0
 13 29  4  0
 14 17  4  0
 14 28  4  0
 15 25  2  0
 16 27  4  0
 17 18  4  0
 20 27  1  0
 24 27  4  0
 26 28  4  0
M  END
$$$$

 Created by Python create_sdf_string function

 29 33  0  0  0  0  0  0  0  0999 V2000
    8.8270   -7.0288   18.4251 C   0  0  0  0  0  0  0  0  0  0  0  0
    9.1576   -4.6236   15.8860 O   0  0  0  0  0  0  0  0  0  0  0  0
    9.1509   -5.9108   17.7177 C   0  0  0  0  0  0  0  0  0  0  0  0
    3.6373   -9.5349   16.0582 N   0  0  0  0  0  0  0  0  0  0  0  0
    9.9275   -4.8001   18.0438 N   0  0  0  0  0  0  0  0  0  0  0  0
    8.5908   -5.7425   16.4412 C   0  0  0  0  0  0  0  0  0  0  0  0
   10.5993   -4.8981   21.6068 C   0  0  0  0  0  0  0  0  0  0  0  0
   10.4258   -3.0106   23.0998 C   0  0  0  0  0  0  0  0  0  0  0  0
   10.2148   -3.4364   25.4200 C   0  0  0  0  0  0  0  0  0  0  0  0
    9.7853   -1.1840   24.4927 C   0  0  0  0  0  0  0  0  0  0  0  0
    5.0276   -8.5227   17.5352 C   0  0  0  0  0  0  0  0  0  0  0  0
    9.8187   -2.0895   25.5800 C   0  0  0  0  0  0  0  0  0  0  0  0
    5.6473   -8.7216   15.3158 C   0  0  0  0  0  0  0  0  0  0  0  0
   10.7581   -3.1233   19.4720 N   0  0  0  0  0  0  0  0  0  0  0  0
    9.9571   -4.0573   16.8866 C   0  0  0  0  0  0  0  0  0  0  0  0
    7.6213   -6.5618   16.0087 C   0  0  0  0  0  0  0  0  0  0  0  0
   10.8583   -2.6527   20.7222 C   0  0  0  0  0  0  0  0  0  0  0  0
   10.6412   -3.5089   21.7936 C   0  0  0  0  0  0  0  0  0  0  0  0
   10.4972   -3.8968   24.1589 C   0  0  0  0  0  0  0  0  0  0  0  0
    5.9260   -8.2736   16.5517 C   0  0  0  0  0  0  0  0  0  0  0  0
    3.8816   -9.1166   17.2493 C   0  0  0  0  0  0  0  0  0  0  0  0
   10.1297   -1.6575   23.2324 C   0  0  0  0  0  0  0  0  0  0  0  0
    9.4684   -1.6929   26.7263 F   0  0  0  0  0  0  0  0  0  0  0  0
    7.7963   -7.7906   17.9837 C   0  0  0  0  0  0  0  0  0  0  0  0
   10.5884   -3.0725   16.7902 O   0  0  0  0  0  0  0  0  0  0  0  0
   10.4323   -5.3494   20.3516 C   0  0  0  0  0  0  0  0  0  0  0  0
    7.1156   -7.5454   16.8218 C   0  0  0  0  0  0  0  0  0  0  0  0
   10.3885   -4.4388   19.2773 C   0  0  0  0  0  0  0  0  0  0  0  0
    4.5160   -9.3822   15.0841 C   0  0  0  0  0  0  0  0  0  0  0  0
  1  3  4  0
  1 24  4  0
  2  6  4  0
  2 15  4  0
  3  5  4  0
  3  6  4  0
  4 21  4  0
  4 29  4  0
  5 15  4  0
  5 28  1  0
  6 16  4  0
  7 18  4  0
  7 26  4  0
  8 18  1  0
  8 19  4  0
  8 22  4  0
  9 12  4  0
  9 19  4  0
 10 12  4  0
 10 22  4  0
 11 20  4  0
 11 21  4  0
 12 23  1  0
 13 20  4  0
 13 29  4  0
 14 17  4  0
 14 28  4  0
 15 25  2  0
 16 27  4  0
 17 18  4  0
 20 27  1  0
 24 27  4  0
 26 28  4  0
M  END
$$$$

 Created by Python create_sdf_string function

 29 33  0  0  0  0  0  0  0  0999 V2000
    8.8270   -7.0288   18.4251 C   0  0  0  0  0  0  0  0  0  0  0  0
    9.1576   -4.6236   15.8860 O   0  0  0  0  0  0  0  0  0  0  0  0
    9.1509   -5.9108   17.7177 C   0  0  0  0  0  0  0  0  0  0  0  0
    3.6373   -9.5349   16.0582 N   0  0  0  0  0  0  0  0  0  0  0  0
    9.9275   -4.8001   18.0438 N   0  0  0  0  0  0  0  0  0  0  0  0
    8.5908   -5.7425   16.4412 C   0  0  0  0  0  0  0  0  0  0  0  0
   10.5993   -4.8981   21.6068 C   0  0  0  0  0  0  0  0  0  0  0  0
   10.4258   -3.0106   23.0998 C   0  0  0  0  0  0  0  0  0  0  0  0
   10.2148   -3.4364   25.4200 C   0  0  0  0  0  0  0  0  0  0  0  0
    9.7853   -1.1840   24.4927 C   0  0  0  0  0  0  0  0  0  0  0  0
    5.0276   -8.5227   17.5352 C   0  0  0  0  0  0  0  0  0  0  0  0
    9.8187   -2.0895   25.5800 C   0  0  0  0  0  0  0  0  0  0  0  0
    5.6473   -8.7216   15.3158 C   0  0  0  0  0  0  0  0  0  0  0  0
   10.7581   -3.1233   19.4720 N   0  0  0  0  0  0  0  0  0  0  0  0
    9.9571   -4.0573   16.8866 C   0  0  0  0  0  0  0  0  0  0  0  0
    7.6213   -6.5618   16.0087 C   0  0  0  0  0  0  0  0  0  0  0  0
   10.8583   -2.6527   20.7222 C   0  0  0  0  0  0  0  0  0  0  0  0
   10.6412   -3.5089   21.7936 C   0  0  0  0  0  0  0  0  0  0  0  0
   10.4972   -3.8968   24.1589 C   0  0  0  0  0  0  0  0  0  0  0  0
    5.9260   -8.2736   16.5517 C   0  0  0  0  0  0  0  0  0  0  0  0
    3.8816   -9.1166   17.2493 C   0  0  0  0  0  0  0  0  0  0  0  0
   10.1297   -1.6575   23.2324 C   0  0  0  0  0  0  0  0  0  0  0  0
    9.4684   -1.6929   26.7263 F   0  0  0  0  0  0  0  0  0  0  0  0
    7.7963   -7.7906   17.9837 C   0  0  0  0  0  0  0  0  0  0  0  0
   10.5884   -3.0725   16.7902 O   0  0  0  0  0  0  0  0  0  0  0  0
   10.4323   -5.3494   20.3516 C   0  0  0  0  0  0  0  0  0  0  0  0
    7.1156   -7.5454   16.8218 C   0  0  0  0  0  0  0  0  0  0  0  0
   10.3885   -4.4388   19.2773 C   0  0  0  0  0  0  0  0  0  0  0  0
    4.5160   -9.3822   15.0841 C   0  0  0  0  0  0  0  0  0  0  0  0
  1  3  4  0
  1 24  4  0
  2  6  4  0
  2 15  4  0
  3  5  4  0
  3  6  4  0
  4 21  4  0
  4 29  4  0
  5 15  4  0
  5 28  1  0
  6 16  4  0
  7 18  4  0
  7 26  4  0
  8 18  1  0
  8 19  4  0
  8 22  4  0
  9 12  4  0
  9 19  4  0
 10 12  4  0
 10 22  4  0
 11 20  4  0
 11 21  4  0
 12 23  1  0
 13 20  4  0
 13 29  4  0
 14 17  4  0
 14 28  4  0
 15 25  2  0
 16 27  4  0
 17 18  4  0
 20 27  1  0
 24 27  4  0
 26 28  4  0
M  END
$$$$

 Created by Python create_sdf_string function

 29 33  0  0  0  0  0  0  0  0999 V2000
    8.8270   -7.0288   18.4251 C   0  0  0  0  0  0  0  0  0  0  0  0
    9.1576   -4.6236   15.8860 O   0  0  0  0  0  0  0  0  0  0  0  0
    9.1509   -5.9108   17.7177 C   0  0  0  0  0  0  0  0  0  0  0  0
    3.6373   -9.5349   16.0582 N   0  0  0  0  0  0  0  0  0  0  0  0
    9.9275   -4.8001   18.0438 N   0  0  0  0  0  0  0  0  0  0  0  0
    8.5908   -5.7425   16.4412 C   0  0  0  0  0  0  0  0  0  0  0  0
   10.5993   -4.8981   21.6068 C   0  0  0  0  0  0  0  0  0  0  0  0
   10.4258   -3.0106   23.0998 C   0  0  0  0  0  0  0  0  0  0  0  0
   10.2148   -3.4364   25.4200 C   0  0  0  0  0  0  0  0  0  0  0  0
    9.7853   -1.1840   24.4927 C   0  0  0  0  0  0  0  0  0  0  0  0
    5.0276   -8.5227   17.5352 C   0  0  0  0  0  0  0  0  0  0  0  0
    9.8187   -2.0895   25.5800 C   0  0  0  0  0  0  0  0  0  0  0  0
    5.6473   -8.7216   15.3158 C   0  0  0  0  0  0  0  0  0  0  0  0
   10.7581   -3.1233   19.4720 N   0  0  0  0  0  0  0  0  0  0  0  0
    9.9571   -4.0573   16.8866 C   0  0  0  0  0  0  0  0  0  0  0  0
    7.6213   -6.5618   16.0087 C   0  0  0  0  0  0  0  0  0  0  0  0
   10.8583   -2.6527   20.7222 C   0  0  0  0  0  0  0  0  0  0  0  0
   10.6412   -3.5089   21.7936 C   0  0  0  0  0  0  0  0  0  0  0  0
   10.4972   -3.8968   24.1589 C   0  0  0  0  0  0  0  0  0  0  0  0
    5.9260   -8.2736   16.5517 C   0  0  0  0  0  0  0  0  0  0  0  0
    3.8816   -9.1166   17.2493 C   0  0  0  0  0  0  0  0  0  0  0  0
   10.1297   -1.6575   23.2324 C   0  0  0  0  0  0  0  0  0  0  0  0
    9.4684   -1.6929   26.7263 F   0  0  0  0  0  0  0  0  0  0  0  0
    7.7963   -7.7906   17.9837 C   0  0  0  0  0  0  0  0  0  0  0  0
   10.5884   -3.0725   16.7902 O   0  0  0  0  0  0  0  0  0  0  0  0
   10.4323   -5.3494   20.3516 C   0  0  0  0  0  0  0  0  0  0  0  0
    7.1156   -7.5454   16.8218 C   0  0  0  0  0  0  0  0  0  0  0  0
   10.3885   -4.4388   19.2773 C   0  0  0  0  0  0  0  0  0  0  0  0
    4.5160   -9.3822   15.0841 C   0  0  0  0  0  0  0  0  0  0  0  0
  1  3  4  0
  1 24  4  0
  2  6  4  0
  2 15  4  0
  3  5  4  0
  3  6  4  0
  4 21  4  0
  4 29  4  0
  5 15  4  0
  5 28  1  0
  6 16  4  0
  7 18  4  0
  7 26  4  0
  8 18  1  0
  8 19  4  0
  8 22  4  0
  9 12  4  0
  9 19  4  0
 10 12  4  0
 10 22  4  0
 11 20  4  0
 11 21  4  0
 12 23  1  0
 13 20  4  0
 13 29  4  0
 14 17  4  0
 14 28  4  0
 15 25  2  0
 16 27  4  0
 17 18  4  0
 20 27  1  0
 24 27  4  0
 26 28  4  0
M  END
$$$$

 Created by Python create_sdf_string function

 29 33  0  0  0  0  0  0  0  0999 V2000
    8.8270   -7.0288   18.4251 C   0  0  0  0  0  0  0  0  0  0  0  0
    9.1576   -4.6236   15.8860 O   0  0  0  0  0  0  0  0  0  0  0  0
    9.1509   -5.9108   17.7177 C   0  0  0  0  0  0  0  0  0  0  0  0
    3.6373   -9.5349   16.0582 N   0  0  0  0  0  0  0  0  0  0  0  0
    9.9275   -4.8001   18.0438 N   0  0  0  0  0  0  0  0  0  0  0  0
    8.5908   -5.7425   16.4412 C   0  0  0  0  0  0  0  0  0  0  0  0
   10.5993   -4.8981   21.6068 C   0  0  0  0  0  0  0  0  0  0  0  0
   10.4258   -3.0106   23.0998 C   0  0  0  0  0  0  0  0  0  0  0  0
   10.2148   -3.4364   25.4200 C   0  0  0  0  0  0  0  0  0  0  0  0
    9.7853   -1.1840   24.4927 C   0  0  0  0  0  0  0  0  0  0  0  0
    5.0276   -8.5227   17.5352 C   0  0  0  0  0  0  0  0  0  0  0  0
    9.8187   -2.0895   25.5800 C   0  0  0  0  0  0  0  0  0  0  0  0
    5.6473   -8.7216   15.3158 C   0  0  0  0  0  0  0  0  0  0  0  0
   10.7581   -3.1233   19.4720 N   0  0  0  0  0  0  0  0  0  0  0  0
    9.9571   -4.0573   16.8866 C   0  0  0  0  0  0  0  0  0  0  0  0
    7.6213   -6.5618   16.0087 C   0  0  0  0  0  0  0  0  0  0  0  0
   10.8583   -2.6527   20.7222 C   0  0  0  0  0  0  0  0  0  0  0  0
   10.6412   -3.5089   21.7936 C   0  0  0  0  0  0  0  0  0  0  0  0
   10.4972   -3.8968   24.1589 C   0  0  0  0  0  0  0  0  0  0  0  0
    5.9260   -8.2736   16.5517 C   0  0  0  0  0  0  0  0  0  0  0  0
    3.8816   -9.1166   17.2493 C   0  0  0  0  0  0  0  0  0  0  0  0
   10.1297   -1.6575   23.2324 C   0  0  0  0  0  0  0  0  0  0  0  0
    9.4684   -1.6929   26.7263 F   0  0  0  0  0  0  0  0  0  0  0  0
    7.7963   -7.7906   17.9837 C   0  0  0  0  0  0  0  0  0  0  0  0
   10.5884   -3.0725   16.7902 O   0  0  0  0  0  0  0  0  0  0  0  0
   10.4323   -5.3494   20.3516 C   0  0  0  0  0  0  0  0  0  0  0  0
    7.1156   -7.5454   16.8218 C   0  0  0  0  0  0  0  0  0  0  0  0
   10.3885   -4.4388   19.2773 C   0  0  0  0  0  0  0  0  0  0  0  0
    4.5160   -9.3822   15.0841 C   0  0  0  0  0  0  0  0  0  0  0  0
  1  3  4  0
  1 24  4  0
  2  6  4  0
  2 15  4  0
  3  5  4  0
  3  6  4  0
  4 21  4  0
  4 29  4  0
  5 15  4  0
  5 28  1  0
  6 16  4  0
  7 18  4  0
  7 26  4  0
  8 18  1  0
  8 19  4  0
  8 22  4  0
  9 12  4  0
  9 19  4  0
 10 12  4  0
 10 22  4  0
 11 20  4  0
 11 21  4  0
 12 23  1  0
 13 20  4  0
 13 29  4  0
 14 17  4  0
 14 28  4  0
 15 25  2  0
 16 27  4  0
 17 18  4  0
 20 27  1  0
 24 27  4  0
 26 28  4  0
M  END
$$$$

 Created by Python create_sdf_string function

 29 33  0  0  0  0  0  0  0  0999 V2000
    8.8270   -7.0288   18.4251 C   0  0  0  0  0  0  0  0  0  0  0  0
    9.1576   -4.6236   15.8860 O   0  0  0  0  0  0  0  0  0  0  0  0
    9.1509   -5.9108   17.7177 C   0  0  0  0  0  0  0  0  0  0  0  0
    3.6373   -9.5349   16.0582 N   0  0  0  0  0  0  0  0  0  0  0  0
    9.9275   -4.8001   18.0438 N   0  0  0  0  0  0  0  0  0  0  0  0
    8.5908   -5.7425   16.4412 C   0  0  0  0  0  0  0  0  0  0  0  0
   10.5993   -4.8981   21.6068 C   0  0  0  0  0  0  0  0  0  0  0  0
   10.4258   -3.0106   23.0998 C   0  0  0  0  0  0  0  0  0  0  0  0
   10.2148   -3.4364   25.4200 C   0  0  0  0  0  0  0  0  0  0  0  0
    9.7853   -1.1840   24.4927 C   0  0  0  0  0  0  0  0  0  0  0  0
    5.0276   -8.5227   17.5352 C   0  0  0  0  0  0  0  0  0  0  0  0
    9.8187   -2.0895   25.5800 C   0  0  0  0  0  0  0  0  0  0  0  0
    5.6473   -8.7216   15.3158 C   0  0  0  0  0  0  0  0  0  0  0  0
   10.7581   -3.1233   19.4720 N   0  0  0  0  0  0  0  0  0  0  0  0
    9.9571   -4.0573   16.8866 C   0  0  0  0  0  0  0  0  0  0  0  0
    7.6213   -6.5618   16.0087 C   0  0  0  0  0  0  0  0  0  0  0  0
   10.8583   -2.6527   20.7222 C   0  0  0  0  0  0  0  0  0  0  0  0
   10.6412   -3.5089   21.7936 C   0  0  0  0  0  0  0  0  0  0  0  0
   10.4972   -3.8968   24.1589 C   0  0  0  0  0  0  0  0  0  0  0  0
    5.9260   -8.2736   16.5517 C   0  0  0  0  0  0  0  0  0  0  0  0
    3.8816   -9.1166   17.2493 C   0  0  0  0  0  0  0  0  0  0  0  0
   10.1297   -1.6575   23.2324 C   0  0  0  0  0  0  0  0  0  0  0  0
    9.4684   -1.6929   26.7263 F   0  0  0  0  0  0  0  0  0  0  0  0
    7.7963   -7.7906   17.9837 C   0  0  0  0  0  0  0  0  0  0  0  0
   10.5884   -3.0725   16.7902 O   0  0  0  0  0  0  0  0  0  0  0  0
   10.4323   -5.3494   20.3516 C   0  0  0  0  0  0  0  0  0  0  0  0
    7.1156   -7.5454   16.8218 C   0  0  0  0  0  0  0  0  0  0  0  0
   10.3885   -4.4388   19.2773 C   0  0  0  0  0  0  0  0  0  0  0  0
    4.5160   -9.3822   15.0841 C   0  0  0  0  0  0  0  0  0  0  0  0
  1  3  4  0
  1 24  4  0
  2  6  4  0
  2 15  4  0
  3  5  4  0
  3  6  4  0
  4 21  4  0
  4 29  4  0
  5 15  4  0
  5 28  1  0
  6 16  4  0
  7 18  4  0
  7 26  4  0
  8 18  1  0
  8 19  4  0
  8 22  4  0
  9 12  4  0
  9 19  4  0
 10 12  4  0
 10 22  4  0
 11 20  4  0
 11 21  4  0
 12 23  1  0
 13 20  4  0
 13 29  4  0
 14 17  4  0
 14 28  4  0
 15 25  2  0
 16 27  4  0
 17 18  4  0
 20 27  1  0
 24 27  4  0
 26 28  4  0
M  END
$$$$

 Created by Python create_sdf_string function

 29 33  0  0  0  0  0  0  0  0999 V2000
    8.8270   -7.0288   18.4251 C   0  0  0  0  0  0  0  0  0  0  0  0
    9.1576   -4.6236   15.8860 O   0  0  0  0  0  0  0  0  0  0  0  0
    9.1509   -5.9108   17.7177 C   0  0  0  0  0  0  0  0  0  0  0  0
    3.6373   -9.5349   16.0582 N   0  0  0  0  0  0  0  0  0  0  0  0
    9.9275   -4.8001   18.0438 N   0  0  0  0  0  0  0  0  0  0  0  0
    8.5908   -5.7425   16.4412 C   0  0  0  0  0  0  0  0  0  0  0  0
   10.5993   -4.8981   21.6068 C   0  0  0  0  0  0  0  0  0  0  0  0
   10.4258   -3.0106   23.0998 C   0  0  0  0  0  0  0  0  0  0  0  0
   10.2148   -3.4364   25.4200 C   0  0  0  0  0  0  0  0  0  0  0  0
    9.7853   -1.1840   24.4927 C   0  0  0  0  0  0  0  0  0  0  0  0
    5.0276   -8.5227   17.5352 C   0  0  0  0  0  0  0  0  0  0  0  0
    9.8187   -2.0895   25.5800 C   0  0  0  0  0  0  0  0  0  0  0  0
    5.6473   -8.7216   15.3158 C   0  0  0  0  0  0  0  0  0  0  0  0
   10.7581   -3.1233   19.4720 N   0  0  0  0  0  0  0  0  0  0  0  0
    9.9571   -4.0573   16.8866 C   0  0  0  0  0  0  0  0  0  0  0  0
    7.6213   -6.5618   16.0087 C   0  0  0  0  0  0  0  0  0  0  0  0
   10.8583   -2.6527   20.7222 C   0  0  0  0  0  0  0  0  0  0  0  0
   10.6412   -3.5089   21.7936 C   0  0  0  0  0  0  0  0  0  0  0  0
   10.4972   -3.8968   24.1589 C   0  0  0  0  0  0  0  0  0  0  0  0
    5.9260   -8.2736   16.5517 C   0  0  0  0  0  0  0  0  0  0  0  0
    3.8816   -9.1166   17.2493 C   0  0  0  0  0  0  0  0  0  0  0  0
   10.1297   -1.6575   23.2324 C   0  0  0  0  0  0  0  0  0  0  0  0
    9.4684   -1.6929   26.7263 F   0  0  0  0  0  0  0  0  0  0  0  0
    7.7963   -7.7906   17.9837 C   0  0  0  0  0  0  0  0  0  0  0  0
   10.5884   -3.0725   16.7902 O   0  0  0  0  0  0  0  0  0  0  0  0
   10.4323   -5.3494   20.3516 C   0  0  0  0  0  0  0  0  0  0  0  0
    7.1156   -7.5454   16.8218 C   0  0  0  0  0  0  0  0  0  0  0  0
   10.3885   -4.4388   19.2773 C   0  0  0  0  0  0  0  0  0  0  0  0
    4.5160   -9.3822   15.0841 C   0  0  0  0  0  0  0  0  0  0  0  0
  1  3  4  0
  1 24  4  0
  2  6  4  0
  2 15  4  0
  3  5  4  0
  3  6  4  0
  4 21  4  0
  4 29  4  0
  5 15  4  0
  5 28  1  0
  6 16  4  0
  7 18  4  0
  7 26  4  0
  8 18  1  0
  8 19  4  0
  8 22  4  0
  9 12  4  0
  9 19  4  0
 10 12  4  0
 10 22  4  0
 11 20  4  0
 11 21  4  0
 12 23  1  0
 13 20  4  0
 13 29  4  0
 14 17  4  0
 14 28  4  0
 15 25  2  0
 16 27  4  0
 17 18  4  0
 20 27  1  0
 24 27  4  0
 26 28  4  0
M  END
$$$$

 Created by Python create_sdf_string function

 29 33  0  0  0  0  0  0  0  0999 V2000
    8.8270   -7.0288   18.4251 C   0  0  0  0  0  0  0  0  0  0  0  0
    9.1576   -4.6236   15.8860 O   0  0  0  0  0  0  0  0  0  0  0  0
    9.1509   -5.9108   17.7177 C   0  0  0  0  0  0  0  0  0  0  0  0
    3.6373   -9.5349   16.0582 N   0  0  0  0  0  0  0  0  0  0  0  0
    9.9275   -4.8001   18.0438 N   0  0  0  0  0  0  0  0  0  0  0  0
    8.5908   -5.7425   16.4412 C   0  0  0  0  0  0  0  0  0  0  0  0
   10.5993   -4.8981   21.6068 C   0  0  0  0  0  0  0  0  0  0  0  0
   10.4258   -3.0106   23.0998 C   0  0  0  0  0  0  0  0  0  0  0  0
   10.2148   -3.4364   25.4200 C   0  0  0  0  0  0  0  0  0  0  0  0
    9.7853   -1.1840   24.4927 C   0  0  0  0  0  0  0  0  0  0  0  0
    5.0276   -8.5227   17.5352 C   0  0  0  0  0  0  0  0  0  0  0  0
    9.8187   -2.0895   25.5800 C   0  0  0  0  0  0  0  0  0  0  0  0
    5.6473   -8.7216   15.3158 C   0  0  0  0  0  0  0  0  0  0  0  0
   10.7581   -3.1233   19.4720 N   0  0  0  0  0  0  0  0  0  0  0  0
    9.9571   -4.0573   16.8866 C   0  0  0  0  0  0  0  0  0  0  0  0
    7.6213   -6.5618   16.0087 C   0  0  0  0  0  0  0  0  0  0  0  0
   10.8583   -2.6527   20.7222 C   0  0  0  0  0  0  0  0  0  0  0  0
   10.6412   -3.5089   21.7936 C   0  0  0  0  0  0  0  0  0  0  0  0
   10.4972   -3.8968   24.1589 C   0  0  0  0  0  0  0  0  0  0  0  0
    5.9260   -8.2736   16.5517 C   0  0  0  0  0  0  0  0  0  0  0  0
    3.8816   -9.1166   17.2493 C   0  0  0  0  0  0  0  0  0  0  0  0
   10.1297   -1.6575   23.2324 C   0  0  0  0  0  0  0  0  0  0  0  0
    9.4684   -1.6929   26.7263 F   0  0  0  0  0  0  0  0  0  0  0  0
    7.7963   -7.7906   17.9837 C   0  0  0  0  0  0  0  0  0  0  0  0
   10.5884   -3.0725   16.7902 O   0  0  0  0  0  0  0  0  0  0  0  0
   10.4323   -5.3494   20.3516 C   0  0  0  0  0  0  0  0  0  0  0  0
    7.1156   -7.5454   16.8218 C   0  0  0  0  0  0  0  0  0  0  0  0
   10.3885   -4.4388   19.2773 C   0  0  0  0  0  0  0  0  0  0  0  0
    4.5160   -9.3822   15.0841 C   0  0  0  0  0  0  0  0  0  0  0  0
  1  3  4  0
  1 24  4  0
  2  6  4  0
  2 15  4  0
  3  5  4  0
  3  6  4  0
  4 21  4  0
  4 29  4  0
  5 15  4  0
  5 28  1  0
  6 16  4  0
  7 18  4  0
  7 26  4  0
  8 18  1  0
  8 19  4  0
  8 22  4  0
  9 12  4  0
  9 19  4  0
 10 12  4  0
 10 22  4  0
 11 20  4  0
 11 21  4  0
 12 23  1  0
 13 20  4  0
 13 29  4  0
 14 17  4  0
 14 28  4  0
 15 25  2  0
 16 27  4  0
 17 18  4  0
 20 27  1  0
 24 27  4  0
 26 28  4  0
M  END
$$$$

 Created by Python create_sdf_string function

 29 33  0  0  0  0  0  0  0  0999 V2000
    8.8270   -7.0288   18.4251 C   0  0  0  0  0  0  0  0  0  0  0  0
    9.1576   -4.6236   15.8860 O   0  0  0  0  0  0  0  0  0  0  0  0
    9.1509   -5.9108   17.7177 C   0  0  0  0  0  0  0  0  0  0  0  0
    3.6373   -9.5349   16.0582 N   0  0  0  0  0  0  0  0  0  0  0  0
    9.9275   -4.8001   18.0438 N   0  0  0  0  0  0  0  0  0  0  0  0
    8.5908   -5.7425   16.4412 C   0  0  0  0  0  0  0  0  0  0  0  0
   10.5993   -4.8981   21.6068 C   0  0  0  0  0  0  0  0  0  0  0  0
   10.4258   -3.0106   23.0998 C   0  0  0  0  0  0  0  0  0  0  0  0
   10.2148   -3.4364   25.4200 C   0  0  0  0  0  0  0  0  0  0  0  0
    9.7853   -1.1840   24.4927 C   0  0  0  0  0  0  0  0  0  0  0  0
    5.0276   -8.5227   17.5352 C   0  0  0  0  0  0  0  0  0  0  0  0
    9.8187   -2.0895   25.5800 C   0  0  0  0  0  0  0  0  0  0  0  0
    5.6473   -8.7216   15.3158 C   0  0  0  0  0  0  0  0  0  0  0  0
   10.7581   -3.1233   19.4720 N   0  0  0  0  0  0  0  0  0  0  0  0
    9.9571   -4.0573   16.8866 C   0  0  0  0  0  0  0  0  0  0  0  0
    7.6213   -6.5618   16.0087 C   0  0  0  0  0  0  0  0  0  0  0  0
   10.8583   -2.6527   20.7222 C   0  0  0  0  0  0  0  0  0  0  0  0
   10.6412   -3.5089   21.7936 C   0  0  0  0  0  0  0  0  0  0  0  0
   10.4972   -3.8968   24.1589 C   0  0  0  0  0  0  0  0  0  0  0  0
    5.9260   -8.2736   16.5517 C   0  0  0  0  0  0  0  0  0  0  0  0
    3.8816   -9.1166   17.2493 C   0  0  0  0  0  0  0  0  0  0  0  0
   10.1297   -1.6575   23.2324 C   0  0  0  0  0  0  0  0  0  0  0  0
    9.4684   -1.6929   26.7263 F   0  0  0  0  0  0  0  0  0  0  0  0
    7.7963   -7.7906   17.9837 C   0  0  0  0  0  0  0  0  0  0  0  0
   10.5884   -3.0725   16.7902 O   0  0  0  0  0  0  0  0  0  0  0  0
   10.4323   -5.3494   20.3516 C   0  0  0  0  0  0  0  0  0  0  0  0
    7.1156   -7.5454   16.8218 C   0  0  0  0  0  0  0  0  0  0  0  0
   10.3885   -4.4388   19.2773 C   0  0  0  0  0  0  0  0  0  0  0  0
    4.5160   -9.3822   15.0841 C   0  0  0  0  0  0  0  0  0  0  0  0
  1  3  4  0
  1 24  4  0
  2  6  4  0
  2 15  4  0
  3  5  4  0
  3  6  4  0
  4 21  4  0
  4 29  4  0
  5 15  4  0
  5 28  1  0
  6 16  4  0
  7 18  4  0
  7 26  4  0
  8 18  1  0
  8 19  4  0
  8 22  4  0
  9 12  4  0
  9 19  4  0
 10 12  4  0
 10 22  4  0
 11 20  4  0
 11 21  4  0
 12 23  1  0
 13 20  4  0
 13 29  4  0
 14 17  4  0
 14 28  4  0
 15 25  2  0
 16 27  4  0
 17 18  4  0
 20 27  1  0
 24 27  4  0
 26 28  4  0
M  END
$$$$

 Created by Python create_sdf_string function

 29 33  0  0  0  0  0  0  0  0999 V2000
    8.8270   -7.0288   18.4251 C   0  0  0  0  0  0  0  0  0  0  0  0
    9.1576   -4.6236   15.8860 O   0  0  0  0  0  0  0  0  0  0  0  0
    9.1509   -5.9108   17.7177 C   0  0  0  0  0  0  0  0  0  0  0  0
    3.6373   -9.5349   16.0582 N   0  0  0  0  0  0  0  0  0  0  0  0
    9.9275   -4.8001   18.0438 N   0  0  0  0  0  0  0  0  0  0  0  0
    8.5908   -5.7425   16.4412 C   0  0  0  0  0  0  0  0  0  0  0  0
   10.5993   -4.8981   21.6068 C   0  0  0  0  0  0  0  0  0  0  0  0
   10.4258   -3.0106   23.0998 C   0  0  0  0  0  0  0  0  0  0  0  0
   10.2148   -3.4364   25.4200 C   0  0  0  0  0  0  0  0  0  0  0  0
    9.7853   -1.1840   24.4927 C   0  0  0  0  0  0  0  0  0  0  0  0
    5.0276   -8.5227   17.5352 C   0  0  0  0  0  0  0  0  0  0  0  0
    9.8187   -2.0895   25.5800 C   0  0  0  0  0  0  0  0  0  0  0  0
    5.6473   -8.7216   15.3158 C   0  0  0  0  0  0  0  0  0  0  0  0
   10.7581   -3.1233   19.4720 N   0  0  0  0  0  0  0  0  0  0  0  0
    9.9571   -4.0573   16.8866 C   0  0  0  0  0  0  0  0  0  0  0  0
    7.6213   -6.5618   16.0087 C   0  0  0  0  0  0  0  0  0  0  0  0
   10.8583   -2.6527   20.7222 C   0  0  0  0  0  0  0  0  0  0  0  0
   10.6412   -3.5089   21.7936 C   0  0  0  0  0  0  0  0  0  0  0  0
   10.4972   -3.8968   24.1589 C   0  0  0  0  0  0  0  0  0  0  0  0
    5.9260   -8.2736   16.5517 C   0  0  0  0  0  0  0  0  0  0  0  0
    3.8816   -9.1166   17.2493 C   0  0  0  0  0  0  0  0  0  0  0  0
   10.1297   -1.6575   23.2324 C   0  0  0  0  0  0  0  0  0  0  0  0
    9.4684   -1.6929   26.7263 F   0  0  0  0  0  0  0  0  0  0  0  0
    7.7963   -7.7906   17.9837 C   0  0  0  0  0  0  0  0  0  0  0  0
   10.5884   -3.0725   16.7902 O   0  0  0  0  0  0  0  0  0  0  0  0
   10.4323   -5.3494   20.3516 C   0  0  0  0  0  0  0  0  0  0  0  0
    7.1156   -7.5454   16.8218 C   0  0  0  0  0  0  0  0  0  0  0  0
   10.3885   -4.4388   19.2773 C   0  0  0  0  0  0  0  0  0  0  0  0
    4.5160   -9.3822   15.0841 C   0  0  0  0  0  0  0  0  0  0  0  0
  1  3  4  0
  1 24  4  0
  2  6  4  0
  2 15  4  0
  3  5  4  0
  3  6  4  0
  4 21  4  0
  4 29  4  0
  5 15  4  0
  5 28  1  0
  6 16  4  0
  7 18  4  0
  7 26  4  0
  8 18  1  0
  8 19  4  0
  8 22  4  0
  9 12  4  0
  9 19  4  0
 10 12  4  0
 10 22  4  0
 11 20  4  0
 11 21  4  0
 12 23  1  0
 13 20  4  0
 13 29  4  0
 14 17  4  0
 14 28  4  0
 15 25  2  0
 16 27  4  0
 17 18  4  0
 20 27  1  0
 24 27  4  0
 26 28  4  0
M  END
$$$$

 Created by Python create_sdf_string function

 29 33  0  0  0  0  0  0  0  0999 V2000
    8.8270   -7.0288   18.4251 C   0  0  0  0  0  0  0  0  0  0  0  0
    9.1576   -4.6236   15.8860 O   0  0  0  0  0  0  0  0  0  0  0  0
    9.1509   -5.9108   17.7177 C   0  0  0  0  0  0  0  0  0  0  0  0
    3.6373   -9.5349   16.0582 N   0  0  0  0  0  0  0  0  0  0  0  0
    9.9275   -4.8001   18.0438 N   0  0  0  0  0  0  0  0  0  0  0  0
    8.5908   -5.7425   16.4412 C   0  0  0  0  0  0  0  0  0  0  0  0
   10.5993   -4.8981   21.6068 C   0  0  0  0  0  0  0  0  0  0  0  0
   10.4258   -3.0106   23.0998 C   0  0  0  0  0  0  0  0  0  0  0  0
   10.2148   -3.4364   25.4200 C   0  0  0  0  0  0  0  0  0  0  0  0
    9.7853   -1.1840   24.4927 C   0  0  0  0  0  0  0  0  0  0  0  0
    5.0276   -8.5227   17.5352 C   0  0  0  0  0  0  0  0  0  0  0  0
    9.8187   -2.0895   25.5800 C   0  0  0  0  0  0  0  0  0  0  0  0
    5.6473   -8.7216   15.3158 C   0  0  0  0  0  0  0  0  0  0  0  0
   10.7581   -3.1233   19.4720 N   0  0  0  0  0  0  0  0  0  0  0  0
    9.9571   -4.0573   16.8866 C   0  0  0  0  0  0  0  0  0  0  0  0
    7.6213   -6.5618   16.0087 C   0  0  0  0  0  0  0  0  0  0  0  0
   10.8583   -2.6527   20.7222 C   0  0  0  0  0  0  0  0  0  0  0  0
   10.6412   -3.5089   21.7936 C   0  0  0  0  0  0  0  0  0  0  0  0
   10.4972   -3.8968   24.1589 C   0  0  0  0  0  0  0  0  0  0  0  0
    5.9260   -8.2736   16.5517 C   0  0  0  0  0  0  0  0  0  0  0  0
    3.8816   -9.1166   17.2493 C   0  0  0  0  0  0  0  0  0  0  0  0
   10.1297   -1.6575   23.2324 C   0  0  0  0  0  0  0  0  0  0  0  0
    9.4684   -1.6929   26.7263 F   0  0  0  0  0  0  0  0  0  0  0  0
    7.7963   -7.7906   17.9837 C   0  0  0  0  0  0  0  0  0  0  0  0
   10.5884   -3.0725   16.7902 O   0  0  0  0  0  0  0  0  0  0  0  0
   10.4323   -5.3494   20.3516 C   0  0  0  0  0  0  0  0  0  0  0  0
    7.1156   -7.5454   16.8218 C   0  0  0  0  0  0  0  0  0  0  0  0
   10.3885   -4.4388   19.2773 C   0  0  0  0  0  0  0  0  0  0  0  0
    4.5160   -9.3822   15.0841 C   0  0  0  0  0  0  0  0  0  0  0  0
  1  3  4  0
  1 24  4  0
  2  6  4  0
  2 15  4  0
  3  5  4  0
  3  6  4  0
  4 21  4  0
  4 29  4  0
  5 15  4  0
  5 28  1  0
  6 16  4  0
  7 18  4  0
  7 26  4  0
  8 18  1  0
  8 19  4  0
  8 22  4  0
  9 12  4  0
  9 19  4  0
 10 12  4  0
 10 22  4  0
 11 20  4  0
 11 21  4  0
 12 23  1  0
 13 20  4  0
 13 29  4  0
 14 17  4  0
 14 28  4  0
 15 25  2  0
 16 27  4  0
 17 18  4  0
 20 27  1  0
 24 27  4  0
 26 28  4  0
M  END
$$$$

 Created by Python create_sdf_string function

 29 33  0  0  0  0  0  0  0  0999 V2000
    8.8270   -7.0288   18.4251 C   0  0  0  0  0  0  0  0  0  0  0  0
    9.1576   -4.6236   15.8860 O   0  0  0  0  0  0  0  0  0  0  0  0
    9.1509   -5.9108   17.7177 C   0  0  0  0  0  0  0  0  0  0  0  0
    3.6373   -9.5349   16.0582 N   0  0  0  0  0  0  0  0  0  0  0  0
    9.9275   -4.8001   18.0438 N   0  0  0  0  0  0  0  0  0  0  0  0
    8.5908   -5.7425   16.4412 C   0  0  0  0  0  0  0  0  0  0  0  0
   10.5993   -4.8981   21.6068 C   0  0  0  0  0  0  0  0  0  0  0  0
   10.4258   -3.0106   23.0998 C   0  0  0  0  0  0  0  0  0  0  0  0
   10.2148   -3.4364   25.4200 C   0  0  0  0  0  0  0  0  0  0  0  0
    9.7853   -1.1840   24.4927 C   0  0  0  0  0  0  0  0  0  0  0  0
    5.0276   -8.5227   17.5352 C   0  0  0  0  0  0  0  0  0  0  0  0
    9.8187   -2.0895   25.5800 C   0  0  0  0  0  0  0  0  0  0  0  0
    5.6473   -8.7216   15.3158 C   0  0  0  0  0  0  0  0  0  0  0  0
   10.7581   -3.1233   19.4720 N   0  0  0  0  0  0  0  0  0  0  0  0
    9.9571   -4.0573   16.8866 C   0  0  0  0  0  0  0  0  0  0  0  0
    7.6213   -6.5618   16.0087 C   0  0  0  0  0  0  0  0  0  0  0  0
   10.8583   -2.6527   20.7222 C   0  0  0  0  0  0  0  0  0  0  0  0
   10.6412   -3.5089   21.7936 C   0  0  0  0  0  0  0  0  0  0  0  0
   10.4972   -3.8968   24.1589 C   0  0  0  0  0  0  0  0  0  0  0  0
    5.9260   -8.2736   16.5517 C   0  0  0  0  0  0  0  0  0  0  0  0
    3.8816   -9.1166   17.2493 C   0  0  0  0  0  0  0  0  0  0  0  0
   10.1297   -1.6575   23.2324 C   0  0  0  0  0  0  0  0  0  0  0  0
    9.4684   -1.6929   26.7263 F   0  0  0  0  0  0  0  0  0  0  0  0
    7.7963   -7.7906   17.9837 C   0  0  0  0  0  0  0  0  0  0  0  0
   10.5884   -3.0725   16.7902 O   0  0  0  0  0  0  0  0  0  0  0  0
   10.4323   -5.3494   20.3516 C   0  0  0  0  0  0  0  0  0  0  0  0
    7.1156   -7.5454   16.8218 C   0  0  0  0  0  0  0  0  0  0  0  0
   10.3885   -4.4388   19.2773 C   0  0  0  0  0  0  0  0  0  0  0  0
    4.5160   -9.3822   15.0841 C   0  0  0  0  0  0  0  0  0  0  0  0
  1  3  4  0
  1 24  4  0
  2  6  4  0
  2 15  4  0
  3  5  4  0
  3  6  4  0
  4 21  4  0
  4 29  4  0
  5 15  4  0
  5 28  1  0
  6 16  4  0
  7 18  4  0
  7 26  4  0
  8 18  1  0
  8 19  4  0
  8 22  4  0
  9 12  4  0
  9 19  4  0
 10 12  4  0
 10 22  4  0
 11 20  4  0
 11 21  4  0
 12 23  1  0
 13 20  4  0
 13 29  4  0
 14 17  4  0
 14 28  4  0
 15 25  2  0
 16 27  4  0
 17 18  4  0
 20 27  1  0
 24 27  4  0
 26 28  4  0
M  END
$$$$

 Created by Python create_sdf_string function

 29 33  0  0  0  0  0  0  0  0999 V2000
    8.8270   -7.0288   18.4251 C   0  0  0  0  0  0  0  0  0  0  0  0
    9.1576   -4.6236   15.8860 O   0  0  0  0  0  0  0  0  0  0  0  0
    9.1509   -5.9108   17.7177 C   0  0  0  0  0  0  0  0  0  0  0  0
    3.6373   -9.5349   16.0582 N   0  0  0  0  0  0  0  0  0  0  0  0
    9.9275   -4.8001   18.0438 N   0  0  0  0  0  0  0  0  0  0  0  0
    8.5908   -5.7425   16.4412 C   0  0  0  0  0  0  0  0  0  0  0  0
   10.5993   -4.8981   21.6068 C   0  0  0  0  0  0  0  0  0  0  0  0
   10.4258   -3.0106   23.0998 C   0  0  0  0  0  0  0  0  0  0  0  0
   10.2148   -3.4364   25.4200 C   0  0  0  0  0  0  0  0  0  0  0  0
    9.7853   -1.1840   24.4927 C   0  0  0  0  0  0  0  0  0  0  0  0
    5.0276   -8.5227   17.5352 C   0  0  0  0  0  0  0  0  0  0  0  0
    9.8187   -2.0895   25.5800 C   0  0  0  0  0  0  0  0  0  0  0  0
    5.6473   -8.7216   15.3158 C   0  0  0  0  0  0  0  0  0  0  0  0
   10.7581   -3.1233   19.4720 N   0  0  0  0  0  0  0  0  0  0  0  0
    9.9571   -4.0573   16.8866 C   0  0  0  0  0  0  0  0  0  0  0  0
    7.6213   -6.5618   16.0087 C   0  0  0  0  0  0  0  0  0  0  0  0
   10.8583   -2.6527   20.7222 C   0  0  0  0  0  0  0  0  0  0  0  0
   10.6412   -3.5089   21.7936 C   0  0  0  0  0  0  0  0  0  0  0  0
   10.4972   -3.8968   24.1589 C   0  0  0  0  0  0  0  0  0  0  0  0
    5.9260   -8.2736   16.5517 C   0  0  0  0  0  0  0  0  0  0  0  0
    3.8816   -9.1166   17.2493 C   0  0  0  0  0  0  0  0  0  0  0  0
   10.1297   -1.6575   23.2324 C   0  0  0  0  0  0  0  0  0  0  0  0
    9.4684   -1.6929   26.7263 F   0  0  0  0  0  0  0  0  0  0  0  0
    7.7963   -7.7906   17.9837 C   0  0  0  0  0  0  0  0  0  0  0  0
   10.5884   -3.0725   16.7902 O   0  0  0  0  0  0  0  0  0  0  0  0
   10.4323   -5.3494   20.3516 C   0  0  0  0  0  0  0  0  0  0  0  0
    7.1156   -7.5454   16.8218 C   0  0  0  0  0  0  0  0  0  0  0  0
   10.3885   -4.4388   19.2773 C   0  0  0  0  0  0  0  0  0  0  0  0
    4.5160   -9.3822   15.0841 C   0  0  0  0  0  0  0  0  0  0  0  0
  1  3  4  0
  1 24  4  0
  2  6  4  0
  2 15  4  0
  3  5  4  0
  3  6  4  0
  4 21  4  0
  4 29  4  0
  5 15  4  0
  5 28  1  0
  6 16  4  0
  7 18  4  0
  7 26  4  0
  8 18  1  0
  8 19  4  0
  8 22  4  0
  9 12  4  0
  9 19  4  0
 10 12  4  0
 10 22  4  0
 11 20  4  0
 11 21  4  0
 12 23  1  0
 13 20  4  0
 13 29  4  0
 14 17  4  0
 14 28  4  0
 15 25  2  0
 16 27  4  0
 17 18  4  0
 20 27  1  0
 24 27  4  0
 26 28  4  0
M  END
$$$$

 Created by Python create_sdf_string function

 29 33  0  0  0  0  0  0  0  0999 V2000
    8.8270   -7.0288   18.4251 C   0  0  0  0  0  0  0  0  0  0  0  0
    9.1576   -4.6236   15.8860 O   0  0  0  0  0  0  0  0  0  0  0  0
    9.1509   -5.9108   17.7177 C   0  0  0  0  0  0  0  0  0  0  0  0
    3.6373   -9.5349   16.0582 N   0  0  0  0  0  0  0  0  0  0  0  0
    9.9275   -4.8001   18.0438 N   0  0  0  0  0  0  0  0  0  0  0  0
    8.5908   -5.7425   16.4412 C   0  0  0  0  0  0  0  0  0  0  0  0
   10.5993   -4.8981   21.6068 C   0  0  0  0  0  0  0  0  0  0  0  0
   10.4258   -3.0106   23.0998 C   0  0  0  0  0  0  0  0  0  0  0  0
   10.2148   -3.4364   25.4200 C   0  0  0  0  0  0  0  0  0  0  0  0
    9.7853   -1.1840   24.4927 C   0  0  0  0  0  0  0  0  0  0  0  0
    5.0276   -8.5227   17.5352 C   0  0  0  0  0  0  0  0  0  0  0  0
    9.8187   -2.0895   25.5800 C   0  0  0  0  0  0  0  0  0  0  0  0
    5.6473   -8.7216   15.3158 C   0  0  0  0  0  0  0  0  0  0  0  0
   10.7581   -3.1233   19.4720 N   0  0  0  0  0  0  0  0  0  0  0  0
    9.9571   -4.0573   16.8866 C   0  0  0  0  0  0  0  0  0  0  0  0
    7.6213   -6.5618   16.0087 C   0  0  0  0  0  0  0  0  0  0  0  0
   10.8583   -2.6527   20.7222 C   0  0  0  0  0  0  0  0  0  0  0  0
   10.6412   -3.5089   21.7936 C   0  0  0  0  0  0  0  0  0  0  0  0
   10.4972   -3.8968   24.1589 C   0  0  0  0  0  0  0  0  0  0  0  0
    5.9260   -8.2736   16.5517 C   0  0  0  0  0  0  0  0  0  0  0  0
    3.8816   -9.1166   17.2493 C   0  0  0  0  0  0  0  0  0  0  0  0
   10.1297   -1.6575   23.2324 C   0  0  0  0  0  0  0  0  0  0  0  0
    9.4684   -1.6929   26.7263 F   0  0  0  0  0  0  0  0  0  0  0  0
    7.7963   -7.7906   17.9837 C   0  0  0  0  0  0  0  0  0  0  0  0
   10.5884   -3.0725   16.7902 O   0  0  0  0  0  0  0  0  0  0  0  0
   10.4323   -5.3494   20.3516 C   0  0  0  0  0  0  0  0  0  0  0  0
    7.1156   -7.5454   16.8218 C   0  0  0  0  0  0  0  0  0  0  0  0
   10.3885   -4.4388   19.2773 C   0  0  0  0  0  0  0  0  0  0  0  0
    4.5160   -9.3822   15.0841 C   0  0  0  0  0  0  0  0  0  0  0  0
  1  3  4  0
  1 24  4  0
  2  6  4  0
  2 15  4  0
  3  5  4  0
  3  6  4  0
  4 21  4  0
  4 29  4  0
  5 15  4  0
  5 28  1  0
  6 16  4  0
  7 18  4  0
  7 26  4  0
  8 18  1  0
  8 19  4  0
  8 22  4  0
  9 12  4  0
  9 19  4  0
 10 12  4  0
 10 22  4  0
 11 20  4  0
 11 21  4  0
 12 23  1  0
 13 20  4  0
 13 29  4  0
 14 17  4  0
 14 28  4  0
 15 25  2  0
 16 27  4  0
 17 18  4  0
 20 27  1  0
 24 27  4  0
 26 28  4  0
M  END
$$$$

 Created by Python create_sdf_string function

 29 33  0  0  0  0  0  0  0  0999 V2000
    8.8270   -7.0288   18.4251 C   0  0  0  0  0  0  0  0  0  0  0  0
    9.1576   -4.6236   15.8860 O   0  0  0  0  0  0  0  0  0  0  0  0
    9.1509   -5.9108   17.7177 C   0  0  0  0  0  0  0  0  0  0  0  0
    3.6373   -9.5349   16.0582 N   0  0  0  0  0  0  0  0  0  0  0  0
    9.9275   -4.8001   18.0438 N   0  0  0  0  0  0  0  0  0  0  0  0
    8.5908   -5.7425   16.4412 C   0  0  0  0  0  0  0  0  0  0  0  0
   10.5993   -4.8981   21.6068 C   0  0  0  0  0  0  0  0  0  0  0  0
   10.4258   -3.0106   23.0998 C   0  0  0  0  0  0  0  0  0  0  0  0
   10.2148   -3.4364   25.4200 C   0  0  0  0  0  0  0  0  0  0  0  0
    9.7853   -1.1840   24.4927 C   0  0  0  0  0  0  0  0  0  0  0  0
    5.0276   -8.5227   17.5352 C   0  0  0  0  0  0  0  0  0  0  0  0
    9.8187   -2.0895   25.5800 C   0  0  0  0  0  0  0  0  0  0  0  0
    5.6473   -8.7216   15.3158 C   0  0  0  0  0  0  0  0  0  0  0  0
   10.7581   -3.1233   19.4720 N   0  0  0  0  0  0  0  0  0  0  0  0
    9.9571   -4.0573   16.8866 C   0  0  0  0  0  0  0  0  0  0  0  0
    7.6213   -6.5618   16.0087 C   0  0  0  0  0  0  0  0  0  0  0  0
   10.8583   -2.6527   20.7222 C   0  0  0  0  0  0  0  0  0  0  0  0
   10.6412   -3.5089   21.7936 C   0  0  0  0  0  0  0  0  0  0  0  0
   10.4972   -3.8968   24.1589 C   0  0  0  0  0  0  0  0  0  0  0  0
    5.9260   -8.2736   16.5517 C   0  0  0  0  0  0  0  0  0  0  0  0
    3.8816   -9.1166   17.2493 C   0  0  0  0  0  0  0  0  0  0  0  0
   10.1297   -1.6575   23.2324 C   0  0  0  0  0  0  0  0  0  0  0  0
    9.4684   -1.6929   26.7263 F   0  0  0  0  0  0  0  0  0  0  0  0
    7.7963   -7.7906   17.9837 C   0  0  0  0  0  0  0  0  0  0  0  0
   10.5884   -3.0725   16.7902 O   0  0  0  0  0  0  0  0  0  0  0  0
   10.4323   -5.3494   20.3516 C   0  0  0  0  0  0  0  0  0  0  0  0
    7.1156   -7.5454   16.8218 C   0  0  0  0  0  0  0  0  0  0  0  0
   10.3885   -4.4388   19.2773 C   0  0  0  0  0  0  0  0  0  0  0  0
    4.5160   -9.3822   15.0841 C   0  0  0  0  0  0  0  0  0  0  0  0
  1  3  4  0
  1 24  4  0
  2  6  4  0
  2 15  4  0
  3  5  4  0
  3  6  4  0
  4 21  4  0
  4 29  4  0
  5 15  4  0
  5 28  1  0
  6 16  4  0
  7 18  4  0
  7 26  4  0
  8 18  1  0
  8 19  4  0
  8 22  4  0
  9 12  4  0
  9 19  4  0
 10 12  4  0
 10 22  4  0
 11 20  4  0
 11 21  4  0
 12 23  1  0
 13 20  4  0
 13 29  4  0
 14 17  4  0
 14 28  4  0
 15 25  2  0
 16 27  4  0
 17 18  4  0
 20 27  1  0
 24 27  4  0
 26 28  4  0
M  END
$$$$

 Created by Python create_sdf_string function

 29 33  0  0  0  0  0  0  0  0999 V2000
    8.8270   -7.0288   18.4251 C   0  0  0  0  0  0  0  0  0  0  0  0
    9.1576   -4.6236   15.8860 O   0  0  0  0  0  0  0  0  0  0  0  0
    9.1509   -5.9108   17.7177 C   0  0  0  0  0  0  0  0  0  0  0  0
    3.6373   -9.5349   16.0582 N   0  0  0  0  0  0  0  0  0  0  0  0
    9.9275   -4.8001   18.0438 N   0  0  0  0  0  0  0  0  0  0  0  0
    8.5908   -5.7425   16.4412 C   0  0  0  0  0  0  0  0  0  0  0  0
   10.5993   -4.8981   21.6068 C   0  0  0  0  0  0  0  0  0  0  0  0
   10.4258   -3.0106   23.0998 C   0  0  0  0  0  0  0  0  0  0  0  0
   10.2148   -3.4364   25.4200 C   0  0  0  0  0  0  0  0  0  0  0  0
    9.7853   -1.1840   24.4927 C   0  0  0  0  0  0  0  0  0  0  0  0
    5.0276   -8.5227   17.5352 C   0  0  0  0  0  0  0  0  0  0  0  0
    9.8187   -2.0895   25.5800 C   0  0  0  0  0  0  0  0  0  0  0  0
    5.6473   -8.7216   15.3158 C   0  0  0  0  0  0  0  0  0  0  0  0
   10.7581   -3.1233   19.4720 N   0  0  0  0  0  0  0  0  0  0  0  0
    9.9571   -4.0573   16.8866 C   0  0  0  0  0  0  0  0  0  0  0  0
    7.6213   -6.5618   16.0087 C   0  0  0  0  0  0  0  0  0  0  0  0
   10.8583   -2.6527   20.7222 C   0  0  0  0  0  0  0  0  0  0  0  0
   10.6412   -3.5089   21.7936 C   0  0  0  0  0  0  0  0  0  0  0  0
   10.4972   -3.8968   24.1589 C   0  0  0  0  0  0  0  0  0  0  0  0
    5.9260   -8.2736   16.5517 C   0  0  0  0  0  0  0  0  0  0  0  0
    3.8816   -9.1166   17.2493 C   0  0  0  0  0  0  0  0  0  0  0  0
   10.1297   -1.6575   23.2324 C   0  0  0  0  0  0  0  0  0  0  0  0
    9.4684   -1.6929   26.7263 F   0  0  0  0  0  0  0  0  0  0  0  0
    7.7963   -7.7906   17.9837 C   0  0  0  0  0  0  0  0  0  0  0  0
   10.5884   -3.0725   16.7902 O   0  0  0  0  0  0  0  0  0  0  0  0
   10.4323   -5.3494   20.3516 C   0  0  0  0  0  0  0  0  0  0  0  0
    7.1156   -7.5454   16.8218 C   0  0  0  0  0  0  0  0  0  0  0  0
   10.3885   -4.4388   19.2773 C   0  0  0  0  0  0  0  0  0  0  0  0
    4.5160   -9.3822   15.0841 C   0  0  0  0  0  0  0  0  0  0  0  0
  1  3  4  0
  1 24  4  0
  2  6  4  0
  2 15  4  0
  3  5  4  0
  3  6  4  0
  4 21  4  0
  4 29  4  0
  5 15  4  0
  5 28  1  0
  6 16  4  0
  7 18  4  0
  7 26  4  0
  8 18  1  0
  8 19  4  0
  8 22  4  0
  9 12  4  0
  9 19  4  0
 10 12  4  0
 10 22  4  0
 11 20  4  0
 11 21  4  0
 12 23  1  0
 13 20  4  0
 13 29  4  0
 14 17  4  0
 14 28  4  0
 15 25  2  0
 16 27  4  0
 17 18  4  0
 20 27  1  0
 24 27  4  0
 26 28  4  0
M  END
$$$$

 Created by Python create_sdf_string function

 29 33  0  0  0  0  0  0  0  0999 V2000
    8.8270   -7.0288   18.4251 C   0  0  0  0  0  0  0  0  0  0  0  0
    9.1576   -4.6236   15.8860 O   0  0  0  0  0  0  0  0  0  0  0  0
    9.1509   -5.9108   17.7177 C   0  0  0  0  0  0  0  0  0  0  0  0
    3.6373   -9.5349   16.0582 N   0  0  0  0  0  0  0  0  0  0  0  0
    9.9275   -4.8001   18.0438 N   0  0  0  0  0  0  0  0  0  0  0  0
    8.5908   -5.7425   16.4412 C   0  0  0  0  0  0  0  0  0  0  0  0
   10.5993   -4.8981   21.6068 C   0  0  0  0  0  0  0  0  0  0  0  0
   10.4258   -3.0106   23.0998 C   0  0  0  0  0  0  0  0  0  0  0  0
   10.2148   -3.4364   25.4200 C   0  0  0  0  0  0  0  0  0  0  0  0
    9.7853   -1.1840   24.4927 C   0  0  0  0  0  0  0  0  0  0  0  0
    5.0276   -8.5227   17.5352 C   0  0  0  0  0  0  0  0  0  0  0  0
    9.8187   -2.0895   25.5800 C   0  0  0  0  0  0  0  0  0  0  0  0
    5.6473   -8.7216   15.3158 C   0  0  0  0  0  0  0  0  0  0  0  0
   10.7581   -3.1233   19.4720 N   0  0  0  0  0  0  0  0  0  0  0  0
    9.9571   -4.0573   16.8866 C   0  0  0  0  0  0  0  0  0  0  0  0
    7.6213   -6.5618   16.0087 C   0  0  0  0  0  0  0  0  0  0  0  0
   10.8583   -2.6527   20.7222 C   0  0  0  0  0  0  0  0  0  0  0  0
   10.6412   -3.5089   21.7936 C   0  0  0  0  0  0  0  0  0  0  0  0
   10.4972   -3.8968   24.1589 C   0  0  0  0  0  0  0  0  0  0  0  0
    5.9260   -8.2736   16.5517 C   0  0  0  0  0  0  0  0  0  0  0  0
    3.8816   -9.1166   17.2493 C   0  0  0  0  0  0  0  0  0  0  0  0
   10.1297   -1.6575   23.2324 C   0  0  0  0  0  0  0  0  0  0  0  0
    9.4684   -1.6929   26.7263 F   0  0  0  0  0  0  0  0  0  0  0  0
    7.7963   -7.7906   17.9837 C   0  0  0  0  0  0  0  0  0  0  0  0
   10.5884   -3.0725   16.7902 O   0  0  0  0  0  0  0  0  0  0  0  0
   10.4323   -5.3494   20.3516 C   0  0  0  0  0  0  0  0  0  0  0  0
    7.1156   -7.5454   16.8218 C   0  0  0  0  0  0  0  0  0  0  0  0
   10.3885   -4.4388   19.2773 C   0  0  0  0  0  0  0  0  0  0  0  0
    4.5160   -9.3822   15.0841 C   0  0  0  0  0  0  0  0  0  0  0  0
  1  3  4  0
  1 24  4  0
  2  6  4  0
  2 15  4  0
  3  5  4  0
  3  6  4  0
  4 21  4  0
  4 29  4  0
  5 15  4  0
  5 28  1  0
  6 16  4  0
  7 18  4  0
  7 26  4  0
  8 18  1  0
  8 19  4  0
  8 22  4  0
  9 12  4  0
  9 19  4  0
 10 12  4  0
 10 22  4  0
 11 20  4  0
 11 21  4  0
 12 23  1  0
 13 20  4  0
 13 29  4  0
 14 17  4  0
 14 28  4  0
 15 25  2  0
 16 27  4  0
 17 18  4  0
 20 27  1  0
 24 27  4  0
 26 28  4  0
M  END
$$$$

 Created by Python create_sdf_string function

 29 33  0  0  0  0  0  0  0  0999 V2000
    8.8270   -7.0288   18.4251 C   0  0  0  0  0  0  0  0  0  0  0  0
    9.1576   -4.6236   15.8860 O   0  0  0  0  0  0  0  0  0  0  0  0
    9.1509   -5.9108   17.7177 C   0  0  0  0  0  0  0  0  0  0  0  0
    3.6373   -9.5349   16.0582 N   0  0  0  0  0  0  0  0  0  0  0  0
    9.9275   -4.8001   18.0438 N   0  0  0  0  0  0  0  0  0  0  0  0
    8.5908   -5.7425   16.4412 C   0  0  0  0  0  0  0  0  0  0  0  0
   10.5993   -4.8981   21.6068 C   0  0  0  0  0  0  0  0  0  0  0  0
   10.4258   -3.0106   23.0998 C   0  0  0  0  0  0  0  0  0  0  0  0
   10.2148   -3.4364   25.4200 C   0  0  0  0  0  0  0  0  0  0  0  0
    9.7853   -1.1840   24.4927 C   0  0  0  0  0  0  0  0  0  0  0  0
    5.0276   -8.5227   17.5352 C   0  0  0  0  0  0  0  0  0  0  0  0
    9.8187   -2.0895   25.5800 C   0  0  0  0  0  0  0  0  0  0  0  0
    5.6473   -8.7216   15.3158 C   0  0  0  0  0  0  0  0  0  0  0  0
   10.7581   -3.1233   19.4720 N   0  0  0  0  0  0  0  0  0  0  0  0
    9.9571   -4.0573   16.8866 C   0  0  0  0  0  0  0  0  0  0  0  0
    7.6213   -6.5618   16.0087 C   0  0  0  0  0  0  0  0  0  0  0  0
   10.8583   -2.6527   20.7222 C   0  0  0  0  0  0  0  0  0  0  0  0
   10.6412   -3.5089   21.7936 C   0  0  0  0  0  0  0  0  0  0  0  0
   10.4972   -3.8968   24.1589 C   0  0  0  0  0  0  0  0  0  0  0  0
    5.9260   -8.2736   16.5517 C   0  0  0  0  0  0  0  0  0  0  0  0
    3.8816   -9.1166   17.2493 C   0  0  0  0  0  0  0  0  0  0  0  0
   10.1297   -1.6575   23.2324 C   0  0  0  0  0  0  0  0  0  0  0  0
    9.4684   -1.6929   26.7263 F   0  0  0  0  0  0  0  0  0  0  0  0
    7.7963   -7.7906   17.9837 C   0  0  0  0  0  0  0  0  0  0  0  0
   10.5884   -3.0725   16.7902 O   0  0  0  0  0  0  0  0  0  0  0  0
   10.4323   -5.3494   20.3516 C   0  0  0  0  0  0  0  0  0  0  0  0
    7.1156   -7.5454   16.8218 C   0  0  0  0  0  0  0  0  0  0  0  0
   10.3885   -4.4388   19.2773 C   0  0  0  0  0  0  0  0  0  0  0  0
    4.5160   -9.3822   15.0841 C   0  0  0  0  0  0  0  0  0  0  0  0
  1  3  4  0
  1 24  4  0
  2  6  4  0
  2 15  4  0
  3  5  4  0
  3  6  4  0
  4 21  4  0
  4 29  4  0
  5 15  4  0
  5 28  1  0
  6 16  4  0
  7 18  4  0
  7 26  4  0
  8 18  1  0
  8 19  4  0
  8 22  4  0
  9 12  4  0
  9 19  4  0
 10 12  4  0
 10 22  4  0
 11 20  4  0
 11 21  4  0
 12 23  1  0
 13 20  4  0
 13 29  4  0
 14 17  4  0
 14 28  4  0
 15 25  2  0
 16 27  4  0
 17 18  4  0
 20 27  1  0
 24 27  4  0
 26 28  4  0
M  END
$$$$

 Created by Python create_sdf_string function

 29 33  0  0  0  0  0  0  0  0999 V2000
    8.8270   -7.0288   18.4251 C   0  0  0  0  0  0  0  0  0  0  0  0
    9.1576   -4.6236   15.8860 O   0  0  0  0  0  0  0  0  0  0  0  0
    9.1509   -5.9108   17.7177 C   0  0  0  0  0  0  0  0  0  0  0  0
    3.6373   -9.5349   16.0582 N   0  0  0  0  0  0  0  0  0  0  0  0
    9.9275   -4.8001   18.0438 N   0  0  0  0  0  0  0  0  0  0  0  0
    8.5908   -5.7425   16.4412 C   0  0  0  0  0  0  0  0  0  0  0  0
   10.5993   -4.8981   21.6068 C   0  0  0  0  0  0  0  0  0  0  0  0
   10.4258   -3.0106   23.0998 C   0  0  0  0  0  0  0  0  0  0  0  0
   10.2148   -3.4364   25.4200 C   0  0  0  0  0  0  0  0  0  0  0  0
    9.7853   -1.1840   24.4927 C   0  0  0  0  0  0  0  0  0  0  0  0
    5.0276   -8.5227   17.5352 C   0  0  0  0  0  0  0  0  0  0  0  0
    9.8187   -2.0895   25.5800 C   0  0  0  0  0  0  0  0  0  0  0  0
    5.6473   -8.7216   15.3158 C   0  0  0  0  0  0  0  0  0  0  0  0
   10.7581   -3.1233   19.4720 N   0  0  0  0  0  0  0  0  0  0  0  0
    9.9571   -4.0573   16.8866 C   0  0  0  0  0  0  0  0  0  0  0  0
    7.6213   -6.5618   16.0087 C   0  0  0  0  0  0  0  0  0  0  0  0
   10.8583   -2.6527   20.7222 C   0  0  0  0  0  0  0  0  0  0  0  0
   10.6412   -3.5089   21.7936 C   0  0  0  0  0  0  0  0  0  0  0  0
   10.4972   -3.8968   24.1589 C   0  0  0  0  0  0  0  0  0  0  0  0
    5.9260   -8.2736   16.5517 C   0  0  0  0  0  0  0  0  0  0  0  0
    3.8816   -9.1166   17.2493 C   0  0  0  0  0  0  0  0  0  0  0  0
   10.1297   -1.6575   23.2324 C   0  0  0  0  0  0  0  0  0  0  0  0
    9.4684   -1.6929   26.7263 F   0  0  0  0  0  0  0  0  0  0  0  0
    7.7963   -7.7906   17.9837 C   0  0  0  0  0  0  0  0  0  0  0  0
   10.5884   -3.0725   16.7902 O   0  0  0  0  0  0  0  0  0  0  0  0
   10.4323   -5.3494   20.3516 C   0  0  0  0  0  0  0  0  0  0  0  0
    7.1156   -7.5454   16.8218 C   0  0  0  0  0  0  0  0  0  0  0  0
   10.3885   -4.4388   19.2773 C   0  0  0  0  0  0  0  0  0  0  0  0
    4.5160   -9.3822   15.0841 C   0  0  0  0  0  0  0  0  0  0  0  0
  1  3  4  0
  1 24  4  0
  2  6  4  0
  2 15  4  0
  3  5  4  0
  3  6  4  0
  4 21  4  0
  4 29  4  0
  5 15  4  0
  5 28  1  0
  6 16  4  0
  7 18  4  0
  7 26  4  0
  8 18  1  0
  8 19  4  0
  8 22  4  0
  9 12  4  0
  9 19  4  0
 10 12  4  0
 10 22  4  0
 11 20  4  0
 11 21  4  0
 12 23  1  0
 13 20  4  0
 13 29  4  0
 14 17  4  0
 14 28  4  0
 15 25  2  0
 16 27  4  0
 17 18  4  0
 20 27  1  0
 24 27  4  0
 26 28  4  0
M  END
$$$$

 Created by Python create_sdf_string function

 29 33  0  0  0  0  0  0  0  0999 V2000
    8.8270   -7.0288   18.4251 C   0  0  0  0  0  0  0  0  0  0  0  0
    9.1576   -4.6236   15.8860 O   0  0  0  0  0  0  0  0  0  0  0  0
    9.1509   -5.9108   17.7177 C   0  0  0  0  0  0  0  0  0  0  0  0
    3.6373   -9.5349   16.0582 N   0  0  0  0  0  0  0  0  0  0  0  0
    9.9275   -4.8001   18.0438 N   0  0  0  0  0  0  0  0  0  0  0  0
    8.5908   -5.7425   16.4412 C   0  0  0  0  0  0  0  0  0  0  0  0
   10.5993   -4.8981   21.6068 C   0  0  0  0  0  0  0  0  0  0  0  0
   10.4258   -3.0106   23.0998 C   0  0  0  0  0  0  0  0  0  0  0  0
   10.2148   -3.4364   25.4200 C   0  0  0  0  0  0  0  0  0  0  0  0
    9.7853   -1.1840   24.4927 C   0  0  0  0  0  0  0  0  0  0  0  0
    5.0276   -8.5227   17.5352 C   0  0  0  0  0  0  0  0  0  0  0  0
    9.8187   -2.0895   25.5800 C   0  0  0  0  0  0  0  0  0  0  0  0
    5.6473   -8.7216   15.3158 C   0  0  0  0  0  0  0  0  0  0  0  0
   10.7581   -3.1233   19.4720 N   0  0  0  0  0  0  0  0  0  0  0  0
    9.9571   -4.0573   16.8866 C   0  0  0  0  0  0  0  0  0  0  0  0
    7.6213   -6.5618   16.0087 C   0  0  0  0  0  0  0  0  0  0  0  0
   10.8583   -2.6527   20.7222 C   0  0  0  0  0  0  0  0  0  0  0  0
   10.6412   -3.5089   21.7936 C   0  0  0  0  0  0  0  0  0  0  0  0
   10.4972   -3.8968   24.1589 C   0  0  0  0  0  0  0  0  0  0  0  0
    5.9260   -8.2736   16.5517 C   0  0  0  0  0  0  0  0  0  0  0  0
    3.8816   -9.1166   17.2493 C   0  0  0  0  0  0  0  0  0  0  0  0
   10.1297   -1.6575   23.2324 C   0  0  0  0  0  0  0  0  0  0  0  0
    9.4684   -1.6929   26.7263 F   0  0  0  0  0  0  0  0  0  0  0  0
    7.7963   -7.7906   17.9837 C   0  0  0  0  0  0  0  0  0  0  0  0
   10.5884   -3.0725   16.7902 O   0  0  0  0  0  0  0  0  0  0  0  0
   10.4323   -5.3494   20.3516 C   0  0  0  0  0  0  0  0  0  0  0  0
    7.1156   -7.5454   16.8218 C   0  0  0  0  0  0  0  0  0  0  0  0
   10.3885   -4.4388   19.2773 C   0  0  0  0  0  0  0  0  0  0  0  0
    4.5160   -9.3822   15.0841 C   0  0  0  0  0  0  0  0  0  0  0  0
  1  3  4  0
  1 24  4  0
  2  6  4  0
  2 15  4  0
  3  5  4  0
  3  6  4  0
  4 21  4  0
  4 29  4  0
  5 15  4  0
  5 28  1  0
  6 16  4  0
  7 18  4  0
  7 26  4  0
  8 18  1  0
  8 19  4  0
  8 22  4  0
  9 12  4  0
  9 19  4  0
 10 12  4  0
 10 22  4  0
 11 20  4  0
 11 21  4  0
 12 23  1  0
 13 20  4  0
 13 29  4  0
 14 17  4  0
 14 28  4  0
 15 25  2  0
 16 27  4  0
 17 18  4  0
 20 27  1  0
 24 27  4  0
 26 28  4  0
M  END
$$$$

 Created by Python create_sdf_string function

 29 33  0  0  0  0  0  0  0  0999 V2000
    8.8270   -7.0288   18.4251 C   0  0  0  0  0  0  0  0  0  0  0  0
    9.1576   -4.6236   15.8860 O   0  0  0  0  0  0  0  0  0  0  0  0
    9.1509   -5.9108   17.7177 C   0  0  0  0  0  0  0  0  0  0  0  0
    3.6373   -9.5349   16.0582 N   0  0  0  0  0  0  0  0  0  0  0  0
    9.9275   -4.8001   18.0438 N   0  0  0  0  0  0  0  0  0  0  0  0
    8.5908   -5.7425   16.4412 C   0  0  0  0  0  0  0  0  0  0  0  0
   10.5993   -4.8981   21.6068 C   0  0  0  0  0  0  0  0  0  0  0  0
   10.4258   -3.0106   23.0998 C   0  0  0  0  0  0  0  0  0  0  0  0
   10.2148   -3.4364   25.4200 C   0  0  0  0  0  0  0  0  0  0  0  0
    9.7853   -1.1840   24.4927 C   0  0  0  0  0  0  0  0  0  0  0  0
    5.0276   -8.5227   17.5352 C   0  0  0  0  0  0  0  0  0  0  0  0
    9.8187   -2.0895   25.5800 C   0  0  0  0  0  0  0  0  0  0  0  0
    5.6473   -8.7216   15.3158 C   0  0  0  0  0  0  0  0  0  0  0  0
   10.7581   -3.1233   19.4720 N   0  0  0  0  0  0  0  0  0  0  0  0
    9.9571   -4.0573   16.8866 C   0  0  0  0  0  0  0  0  0  0  0  0
    7.6213   -6.5618   16.0087 C   0  0  0  0  0  0  0  0  0  0  0  0
   10.8583   -2.6527   20.7222 C   0  0  0  0  0  0  0  0  0  0  0  0
   10.6412   -3.5089   21.7936 C   0  0  0  0  0  0  0  0  0  0  0  0
   10.4972   -3.8968   24.1589 C   0  0  0  0  0  0  0  0  0  0  0  0
    5.9260   -8.2736   16.5517 C   0  0  0  0  0  0  0  0  0  0  0  0
    3.8816   -9.1166   17.2493 C   0  0  0  0  0  0  0  0  0  0  0  0
   10.1297   -1.6575   23.2324 C   0  0  0  0  0  0  0  0  0  0  0  0
    9.4684   -1.6929   26.7263 F   0  0  0  0  0  0  0  0  0  0  0  0
    7.7963   -7.7906   17.9837 C   0  0  0  0  0  0  0  0  0  0  0  0
   10.5884   -3.0725   16.7902 O   0  0  0  0  0  0  0  0  0  0  0  0
   10.4323   -5.3494   20.3516 C   0  0  0  0  0  0  0  0  0  0  0  0
    7.1156   -7.5454   16.8218 C   0  0  0  0  0  0  0  0  0  0  0  0
   10.3885   -4.4388   19.2773 C   0  0  0  0  0  0  0  0  0  0  0  0
    4.5160   -9.3822   15.0841 C   0  0  0  0  0  0  0  0  0  0  0  0
  1  3  4  0
  1 24  4  0
  2  6  4  0
  2 15  4  0
  3  5  4  0
  3  6  4  0
  4 21  4  0
  4 29  4  0
  5 15  4  0
  5 28  1  0
  6 16  4  0
  7 18  4  0
  7 26  4  0
  8 18  1  0
  8 19  4  0
  8 22  4  0
  9 12  4  0
  9 19  4  0
 10 12  4  0
 10 22  4  0
 11 20  4  0
 11 21  4  0
 12 23  1  0
 13 20  4  0
 13 29  4  0
 14 17  4  0
 14 28  4  0
 15 25  2  0
 16 27  4  0
 17 18  4  0
 20 27  1  0
 24 27  4  0
 26 28  4  0
M  END
$$$$

 Created by Python create_sdf_string function

 29 33  0  0  0  0  0  0  0  0999 V2000
    8.8270   -7.0288   18.4251 C   0  0  0  0  0  0  0  0  0  0  0  0
    9.1576   -4.6236   15.8860 O   0  0  0  0  0  0  0  0  0  0  0  0
    9.1509   -5.9108   17.7177 C   0  0  0  0  0  0  0  0  0  0  0  0
    3.6373   -9.5349   16.0582 N   0  0  0  0  0  0  0  0  0  0  0  0
    9.9275   -4.8001   18.0438 N   0  0  0  0  0  0  0  0  0  0  0  0
    8.5908   -5.7425   16.4412 C   0  0  0  0  0  0  0  0  0  0  0  0
   10.5993   -4.8981   21.6068 C   0  0  0  0  0  0  0  0  0  0  0  0
   10.4258   -3.0106   23.0998 C   0  0  0  0  0  0  0  0  0  0  0  0
   10.2148   -3.4364   25.4200 C   0  0  0  0  0  0  0  0  0  0  0  0
    9.7853   -1.1840   24.4927 C   0  0  0  0  0  0  0  0  0  0  0  0
    5.0276   -8.5227   17.5352 C   0  0  0  0  0  0  0  0  0  0  0  0
    9.8187   -2.0895   25.5800 C   0  0  0  0  0  0  0  0  0  0  0  0
    5.6473   -8.7216   15.3158 C   0  0  0  0  0  0  0  0  0  0  0  0
   10.7581   -3.1233   19.4720 N   0  0  0  0  0  0  0  0  0  0  0  0
    9.9571   -4.0573   16.8866 C   0  0  0  0  0  0  0  0  0  0  0  0
    7.6213   -6.5618   16.0087 C   0  0  0  0  0  0  0  0  0  0  0  0
   10.8583   -2.6527   20.7222 C   0  0  0  0  0  0  0  0  0  0  0  0
   10.6412   -3.5089   21.7936 C   0  0  0  0  0  0  0  0  0  0  0  0
   10.4972   -3.8968   24.1589 C   0  0  0  0  0  0  0  0  0  0  0  0
    5.9260   -8.2736   16.5517 C   0  0  0  0  0  0  0  0  0  0  0  0
    3.8816   -9.1166   17.2493 C   0  0  0  0  0  0  0  0  0  0  0  0
   10.1297   -1.6575   23.2324 C   0  0  0  0  0  0  0  0  0  0  0  0
    9.4684   -1.6929   26.7263 F   0  0  0  0  0  0  0  0  0  0  0  0
    7.7963   -7.7906   17.9837 C   0  0  0  0  0  0  0  0  0  0  0  0
   10.5884   -3.0725   16.7902 O   0  0  0  0  0  0  0  0  0  0  0  0
   10.4323   -5.3494   20.3516 C   0  0  0  0  0  0  0  0  0  0  0  0
    7.1156   -7.5454   16.8218 C   0  0  0  0  0  0  0  0  0  0  0  0
   10.3885   -4.4388   19.2773 C   0  0  0  0  0  0  0  0  0  0  0  0
    4.5160   -9.3822   15.0841 C   0  0  0  0  0  0  0  0  0  0  0  0
  1  3  4  0
  1 24  4  0
  2  6  4  0
  2 15  4  0
  3  5  4  0
  3  6  4  0
  4 21  4  0
  4 29  4  0
  5 15  4  0
  5 28  1  0
  6 16  4  0
  7 18  4  0
  7 26  4  0
  8 18  1  0
  8 19  4  0
  8 22  4  0
  9 12  4  0
  9 19  4  0
 10 12  4  0
 10 22  4  0
 11 20  4  0
 11 21  4  0
 12 23  1  0
 13 20  4  0
 13 29  4  0
 14 17  4  0
 14 28  4  0
 15 25  2  0
 16 27  4  0
 17 18  4  0
 20 27  1  0
 24 27  4  0
 26 28  4  0
M  END
$$$$

 Created by Python create_sdf_string function

 29 33  0  0  0  0  0  0  0  0999 V2000
    8.8270   -7.0288   18.4251 C   0  0  0  0  0  0  0  0  0  0  0  0
    9.1576   -4.6236   15.8860 O   0  0  0  0  0  0  0  0  0  0  0  0
    9.1509   -5.9108   17.7177 C   0  0  0  0  0  0  0  0  0  0  0  0
    3.6373   -9.5349   16.0582 N   0  0  0  0  0  0  0  0  0  0  0  0
    9.9275   -4.8001   18.0438 N   0  0  0  0  0  0  0  0  0  0  0  0
    8.5908   -5.7425   16.4412 C   0  0  0  0  0  0  0  0  0  0  0  0
   10.5993   -4.8981   21.6068 C   0  0  0  0  0  0  0  0  0  0  0  0
   10.4258   -3.0106   23.0998 C   0  0  0  0  0  0  0  0  0  0  0  0
   10.2148   -3.4364   25.4200 C   0  0  0  0  0  0  0  0  0  0  0  0
    9.7853   -1.1840   24.4927 C   0  0  0  0  0  0  0  0  0  0  0  0
    5.0276   -8.5227   17.5352 C   0  0  0  0  0  0  0  0  0  0  0  0
    9.8187   -2.0895   25.5800 C   0  0  0  0  0  0  0  0  0  0  0  0
    5.6473   -8.7216   15.3158 C   0  0  0  0  0  0  0  0  0  0  0  0
   10.7581   -3.1233   19.4720 N   0  0  0  0  0  0  0  0  0  0  0  0
    9.9571   -4.0573   16.8866 C   0  0  0  0  0  0  0  0  0  0  0  0
    7.6213   -6.5618   16.0087 C   0  0  0  0  0  0  0  0  0  0  0  0
   10.8583   -2.6527   20.7222 C   0  0  0  0  0  0  0  0  0  0  0  0
   10.6412   -3.5089   21.7936 C   0  0  0  0  0  0  0  0  0  0  0  0
   10.4972   -3.8968   24.1589 C   0  0  0  0  0  0  0  0  0  0  0  0
    5.9260   -8.2736   16.5517 C   0  0  0  0  0  0  0  0  0  0  0  0
    3.8816   -9.1166   17.2493 C   0  0  0  0  0  0  0  0  0  0  0  0
   10.1297   -1.6575   23.2324 C   0  0  0  0  0  0  0  0  0  0  0  0
    9.4684   -1.6929   26.7263 F   0  0  0  0  0  0  0  0  0  0  0  0
    7.7963   -7.7906   17.9837 C   0  0  0  0  0  0  0  0  0  0  0  0
   10.5884   -3.0725   16.7902 O   0  0  0  0  0  0  0  0  0  0  0  0
   10.4323   -5.3494   20.3516 C   0  0  0  0  0  0  0  0  0  0  0  0
    7.1156   -7.5454   16.8218 C   0  0  0  0  0  0  0  0  0  0  0  0
   10.3885   -4.4388   19.2773 C   0  0  0  0  0  0  0  0  0  0  0  0
    4.5160   -9.3822   15.0841 C   0  0  0  0  0  0  0  0  0  0  0  0
  1  3  4  0
  1 24  4  0
  2  6  4  0
  2 15  4  0
  3  5  4  0
  3  6  4  0
  4 21  4  0
  4 29  4  0
  5 15  4  0
  5 28  1  0
  6 16  4  0
  7 18  4  0
  7 26  4  0
  8 18  1  0
  8 19  4  0
  8 22  4  0
  9 12  4  0
  9 19  4  0
 10 12  4  0
 10 22  4  0
 11 20  4  0
 11 21  4  0
 12 23  1  0
 13 20  4  0
 13 29  4  0
 14 17  4  0
 14 28  4  0
 15 25  2  0
 16 27  4  0
 17 18  4  0
 20 27  1  0
 24 27  4  0
 26 28  4  0
M  END
$$$$

 Created by Python create_sdf_string function

 29 33  0  0  0  0  0  0  0  0999 V2000
    8.8270   -7.0288   18.4251 C   0  0  0  0  0  0  0  0  0  0  0  0
    9.1576   -4.6236   15.8860 O   0  0  0  0  0  0  0  0  0  0  0  0
    9.1509   -5.9108   17.7177 C   0  0  0  0  0  0  0  0  0  0  0  0
    3.6373   -9.5349   16.0582 N   0  0  0  0  0  0  0  0  0  0  0  0
    9.9275   -4.8001   18.0438 N   0  0  0  0  0  0  0  0  0  0  0  0
    8.5908   -5.7425   16.4412 C   0  0  0  0  0  0  0  0  0  0  0  0
   10.5993   -4.8981   21.6068 C   0  0  0  0  0  0  0  0  0  0  0  0
   10.4258   -3.0106   23.0998 C   0  0  0  0  0  0  0  0  0  0  0  0
   10.2148   -3.4364   25.4200 C   0  0  0  0  0  0  0  0  0  0  0  0
    9.7853   -1.1840   24.4927 C   0  0  0  0  0  0  0  0  0  0  0  0
    5.0276   -8.5227   17.5352 C   0  0  0  0  0  0  0  0  0  0  0  0
    9.8187   -2.0895   25.5800 C   0  0  0  0  0  0  0  0  0  0  0  0
    5.6473   -8.7216   15.3158 C   0  0  0  0  0  0  0  0  0  0  0  0
   10.7581   -3.1233   19.4720 N   0  0  0  0  0  0  0  0  0  0  0  0
    9.9571   -4.0573   16.8866 C   0  0  0  0  0  0  0  0  0  0  0  0
    7.6213   -6.5618   16.0087 C   0  0  0  0  0  0  0  0  0  0  0  0
   10.8583   -2.6527   20.7222 C   0  0  0  0  0  0  0  0  0  0  0  0
   10.6412   -3.5089   21.7936 C   0  0  0  0  0  0  0  0  0  0  0  0
   10.4972   -3.8968   24.1589 C   0  0  0  0  0  0  0  0  0  0  0  0
    5.9260   -8.2736   16.5517 C   0  0  0  0  0  0  0  0  0  0  0  0
    3.8816   -9.1166   17.2493 C   0  0  0  0  0  0  0  0  0  0  0  0
   10.1297   -1.6575   23.2324 C   0  0  0  0  0  0  0  0  0  0  0  0
    9.4684   -1.6929   26.7263 F   0  0  0  0  0  0  0  0  0  0  0  0
    7.7963   -7.7906   17.9837 C   0  0  0  0  0  0  0  0  0  0  0  0
   10.5884   -3.0725   16.7902 O   0  0  0  0  0  0  0  0  0  0  0  0
   10.4323   -5.3494   20.3516 C   0  0  0  0  0  0  0  0  0  0  0  0
    7.1156   -7.5454   16.8218 C   0  0  0  0  0  0  0  0  0  0  0  0
   10.3885   -4.4388   19.2773 C   0  0  0  0  0  0  0  0  0  0  0  0
    4.5160   -9.3822   15.0841 C   0  0  0  0  0  0  0  0  0  0  0  0
  1  3  4  0
  1 24  4  0
  2  6  4  0
  2 15  4  0
  3  5  4  0
  3  6  4  0
  4 21  4  0
  4 29  4  0
  5 15  4  0
  5 28  1  0
  6 16  4  0
  7 18  4  0
  7 26  4  0
  8 18  1  0
  8 19  4  0
  8 22  4  0
  9 12  4  0
  9 19  4  0
 10 12  4  0
 10 22  4  0
 11 20  4  0
 11 21  4  0
 12 23  1  0
 13 20  4  0
 13 29  4  0
 14 17  4  0
 14 28  4  0
 15 25  2  0
 16 27  4  0
 17 18  4  0
 20 27  1  0
 24 27  4  0
 26 28  4  0
M  END
$$$$

 Created by Python create_sdf_string function

 29 33  0  0  0  0  0  0  0  0999 V2000
    8.8270   -7.0288   18.4251 C   0  0  0  0  0  0  0  0  0  0  0  0
    9.1576   -4.6236   15.8860 O   0  0  0  0  0  0  0  0  0  0  0  0
    9.1509   -5.9108   17.7177 C   0  0  0  0  0  0  0  0  0  0  0  0
    3.6373   -9.5349   16.0582 N   0  0  0  0  0  0  0  0  0  0  0  0
    9.9275   -4.8001   18.0438 N   0  0  0  0  0  0  0  0  0  0  0  0
    8.5908   -5.7425   16.4412 C   0  0  0  0  0  0  0  0  0  0  0  0
   10.5993   -4.8981   21.6068 C   0  0  0  0  0  0  0  0  0  0  0  0
   10.4258   -3.0106   23.0998 C   0  0  0  0  0  0  0  0  0  0  0  0
   10.2148   -3.4364   25.4200 C   0  0  0  0  0  0  0  0  0  0  0  0
    9.7853   -1.1840   24.4927 C   0  0  0  0  0  0  0  0  0  0  0  0
    5.0276   -8.5227   17.5352 C   0  0  0  0  0  0  0  0  0  0  0  0
    9.8187   -2.0895   25.5800 C   0  0  0  0  0  0  0  0  0  0  0  0
    5.6473   -8.7216   15.3158 C   0  0  0  0  0  0  0  0  0  0  0  0
   10.7581   -3.1233   19.4720 N   0  0  0  0  0  0  0  0  0  0  0  0
    9.9571   -4.0573   16.8866 C   0  0  0  0  0  0  0  0  0  0  0  0
    7.6213   -6.5618   16.0087 C   0  0  0  0  0  0  0  0  0  0  0  0
   10.8583   -2.6527   20.7222 C   0  0  0  0  0  0  0  0  0  0  0  0
   10.6412   -3.5089   21.7936 C   0  0  0  0  0  0  0  0  0  0  0  0
   10.4972   -3.8968   24.1589 C   0  0  0  0  0  0  0  0  0  0  0  0
    5.9260   -8.2736   16.5517 C   0  0  0  0  0  0  0  0  0  0  0  0
    3.8816   -9.1166   17.2493 C   0  0  0  0  0  0  0  0  0  0  0  0
   10.1297   -1.6575   23.2324 C   0  0  0  0  0  0  0  0  0  0  0  0
    9.4684   -1.6929   26.7263 F   0  0  0  0  0  0  0  0  0  0  0  0
    7.7963   -7.7906   17.9837 C   0  0  0  0  0  0  0  0  0  0  0  0
   10.5884   -3.0725   16.7902 O   0  0  0  0  0  0  0  0  0  0  0  0
   10.4323   -5.3494   20.3516 C   0  0  0  0  0  0  0  0  0  0  0  0
    7.1156   -7.5454   16.8218 C   0  0  0  0  0  0  0  0  0  0  0  0
   10.3885   -4.4388   19.2773 C   0  0  0  0  0  0  0  0  0  0  0  0
    4.5160   -9.3822   15.0841 C   0  0  0  0  0  0  0  0  0  0  0  0
  1  3  4  0
  1 24  4  0
  2  6  4  0
  2 15  4  0
  3  5  4  0
  3  6  4  0
  4 21  4  0
  4 29  4  0
  5 15  4  0
  5 28  1  0
  6 16  4  0
  7 18  4  0
  7 26  4  0
  8 18  1  0
  8 19  4  0
  8 22  4  0
  9 12  4  0
  9 19  4  0
 10 12  4  0
 10 22  4  0
 11 20  4  0
 11 21  4  0
 12 23  1  0
 13 20  4  0
 13 29  4  0
 14 17  4  0
 14 28  4  0
 15 25  2  0
 16 27  4  0
 17 18  4  0
 20 27  1  0
 24 27  4  0
 26 28  4  0
M  END
$$$$

 Created by Python create_sdf_string function

 29 33  0  0  0  0  0  0  0  0999 V2000
    8.8270   -7.0288   18.4251 C   0  0  0  0  0  0  0  0  0  0  0  0
    9.1576   -4.6236   15.8860 O   0  0  0  0  0  0  0  0  0  0  0  0
    9.1509   -5.9108   17.7177 C   0  0  0  0  0  0  0  0  0  0  0  0
    3.6373   -9.5349   16.0582 N   0  0  0  0  0  0  0  0  0  0  0  0
    9.9275   -4.8001   18.0438 N   0  0  0  0  0  0  0  0  0  0  0  0
    8.5908   -5.7425   16.4412 C   0  0  0  0  0  0  0  0  0  0  0  0
   10.5993   -4.8981   21.6068 C   0  0  0  0  0  0  0  0  0  0  0  0
   10.4258   -3.0106   23.0998 C   0  0  0  0  0  0  0  0  0  0  0  0
   10.2148   -3.4364   25.4200 C   0  0  0  0  0  0  0  0  0  0  0  0
    9.7853   -1.1840   24.4927 C   0  0  0  0  0  0  0  0  0  0  0  0
    5.0276   -8.5227   17.5352 C   0  0  0  0  0  0  0  0  0  0  0  0
    9.8187   -2.0895   25.5800 C   0  0  0  0  0  0  0  0  0  0  0  0
    5.6473   -8.7216   15.3158 C   0  0  0  0  0  0  0  0  0  0  0  0
   10.7581   -3.1233   19.4720 N   0  0  0  0  0  0  0  0  0  0  0  0
    9.9571   -4.0573   16.8866 C   0  0  0  0  0  0  0  0  0  0  0  0
    7.6213   -6.5618   16.0087 C   0  0  0  0  0  0  0  0  0  0  0  0
   10.8583   -2.6527   20.7222 C   0  0  0  0  0  0  0  0  0  0  0  0
   10.6412   -3.5089   21.7936 C   0  0  0  0  0  0  0  0  0  0  0  0
   10.4972   -3.8968   24.1589 C   0  0  0  0  0  0  0  0  0  0  0  0
    5.9260   -8.2736   16.5517 C   0  0  0  0  0  0  0  0  0  0  0  0
    3.8816   -9.1166   17.2493 C   0  0  0  0  0  0  0  0  0  0  0  0
   10.1297   -1.6575   23.2324 C   0  0  0  0  0  0  0  0  0  0  0  0
    9.4684   -1.6929   26.7263 F   0  0  0  0  0  0  0  0  0  0  0  0
    7.7963   -7.7906   17.9837 C   0  0  0  0  0  0  0  0  0  0  0  0
   10.5884   -3.0725   16.7902 O   0  0  0  0  0  0  0  0  0  0  0  0
   10.4323   -5.3494   20.3516 C   0  0  0  0  0  0  0  0  0  0  0  0
    7.1156   -7.5454   16.8218 C   0  0  0  0  0  0  0  0  0  0  0  0
   10.3885   -4.4388   19.2773 C   0  0  0  0  0  0  0  0  0  0  0  0
    4.5160   -9.3822   15.0841 C   0  0  0  0  0  0  0  0  0  0  0  0
  1  3  4  0
  1 24  4  0
  2  6  4  0
  2 15  4  0
  3  5  4  0
  3  6  4  0
  4 21  4  0
  4 29  4  0
  5 15  4  0
  5 28  1  0
  6 16  4  0
  7 18  4  0
  7 26  4  0
  8 18  1  0
  8 19  4  0
  8 22  4  0
  9 12  4  0
  9 19  4  0
 10 12  4  0
 10 22  4  0
 11 20  4  0
 11 21  4  0
 12 23  1  0
 13 20  4  0
 13 29  4  0
 14 17  4  0
 14 28  4  0
 15 25  2  0
 16 27  4  0
 17 18  4  0
 20 27  1  0
 24 27  4  0
 26 28  4  0
M  END
$$$$

 Created by Python create_sdf_string function

 29 33  0  0  0  0  0  0  0  0999 V2000
    8.8270   -7.0288   18.4251 C   0  0  0  0  0  0  0  0  0  0  0  0
    9.1576   -4.6236   15.8860 O   0  0  0  0  0  0  0  0  0  0  0  0
    9.1509   -5.9108   17.7177 C   0  0  0  0  0  0  0  0  0  0  0  0
    3.6373   -9.5349   16.0582 N   0  0  0  0  0  0  0  0  0  0  0  0
    9.9275   -4.8001   18.0438 N   0  0  0  0  0  0  0  0  0  0  0  0
    8.5908   -5.7425   16.4412 C   0  0  0  0  0  0  0  0  0  0  0  0
   10.5993   -4.8981   21.6068 C   0  0  0  0  0  0  0  0  0  0  0  0
   10.4258   -3.0106   23.0998 C   0  0  0  0  0  0  0  0  0  0  0  0
   10.2148   -3.4364   25.4200 C   0  0  0  0  0  0  0  0  0  0  0  0
    9.7853   -1.1840   24.4927 C   0  0  0  0  0  0  0  0  0  0  0  0
    5.0276   -8.5227   17.5352 C   0  0  0  0  0  0  0  0  0  0  0  0
    9.8187   -2.0895   25.5800 C   0  0  0  0  0  0  0  0  0  0  0  0
    5.6473   -8.7216   15.3158 C   0  0  0  0  0  0  0  0  0  0  0  0
   10.7581   -3.1233   19.4720 N   0  0  0  0  0  0  0  0  0  0  0  0
    9.9571   -4.0573   16.8866 C   0  0  0  0  0  0  0  0  0  0  0  0
    7.6213   -6.5618   16.0087 C   0  0  0  0  0  0  0  0  0  0  0  0
   10.8583   -2.6527   20.7222 C   0  0  0  0  0  0  0  0  0  0  0  0
   10.6412   -3.5089   21.7936 C   0  0  0  0  0  0  0  0  0  0  0  0
   10.4972   -3.8968   24.1589 C   0  0  0  0  0  0  0  0  0  0  0  0
    5.9260   -8.2736   16.5517 C   0  0  0  0  0  0  0  0  0  0  0  0
    3.8816   -9.1166   17.2493 C   0  0  0  0  0  0  0  0  0  0  0  0
   10.1297   -1.6575   23.2324 C   0  0  0  0  0  0  0  0  0  0  0  0
    9.4684   -1.6929   26.7263 F   0  0  0  0  0  0  0  0  0  0  0  0
    7.7963   -7.7906   17.9837 C   0  0  0  0  0  0  0  0  0  0  0  0
   10.5884   -3.0725   16.7902 O   0  0  0  0  0  0  0  0  0  0  0  0
   10.4323   -5.3494   20.3516 C   0  0  0  0  0  0  0  0  0  0  0  0
    7.1156   -7.5454   16.8218 C   0  0  0  0  0  0  0  0  0  0  0  0
   10.3885   -4.4388   19.2773 C   0  0  0  0  0  0  0  0  0  0  0  0
    4.5160   -9.3822   15.0841 C   0  0  0  0  0  0  0  0  0  0  0  0
  1  3  4  0
  1 24  4  0
  2  6  4  0
  2 15  4  0
  3  5  4  0
  3  6  4  0
  4 21  4  0
  4 29  4  0
  5 15  4  0
  5 28  1  0
  6 16  4  0
  7 18  4  0
  7 26  4  0
  8 18  1  0
  8 19  4  0
  8 22  4  0
  9 12  4  0
  9 19  4  0
 10 12  4  0
 10 22  4  0
 11 20  4  0
 11 21  4  0
 12 23  1  0
 13 20  4  0
 13 29  4  0
 14 17  4  0
 14 28  4  0
 15 25  2  0
 16 27  4  0
 17 18  4  0
 20 27  1  0
 24 27  4  0
 26 28  4  0
M  END
$$$$

 Created by Python create_sdf_string function

 29 33  0  0  0  0  0  0  0  0999 V2000
    8.8270   -7.0288   18.4251 C   0  0  0  0  0  0  0  0  0  0  0  0
    9.1576   -4.6236   15.8860 O   0  0  0  0  0  0  0  0  0  0  0  0
    9.1509   -5.9108   17.7177 C   0  0  0  0  0  0  0  0  0  0  0  0
    3.6373   -9.5349   16.0582 N   0  0  0  0  0  0  0  0  0  0  0  0
    9.9275   -4.8001   18.0438 N   0  0  0  0  0  0  0  0  0  0  0  0
    8.5908   -5.7425   16.4412 C   0  0  0  0  0  0  0  0  0  0  0  0
   10.5993   -4.8981   21.6068 C   0  0  0  0  0  0  0  0  0  0  0  0
   10.4258   -3.0106   23.0998 C   0  0  0  0  0  0  0  0  0  0  0  0
   10.2148   -3.4364   25.4200 C   0  0  0  0  0  0  0  0  0  0  0  0
    9.7853   -1.1840   24.4927 C   0  0  0  0  0  0  0  0  0  0  0  0
    5.0276   -8.5227   17.5352 C   0  0  0  0  0  0  0  0  0  0  0  0
    9.8187   -2.0895   25.5800 C   0  0  0  0  0  0  0  0  0  0  0  0
    5.6473   -8.7216   15.3158 C   0  0  0  0  0  0  0  0  0  0  0  0
   10.7581   -3.1233   19.4720 N   0  0  0  0  0  0  0  0  0  0  0  0
    9.9571   -4.0573   16.8866 C   0  0  0  0  0  0  0  0  0  0  0  0
    7.6213   -6.5618   16.0087 C   0  0  0  0  0  0  0  0  0  0  0  0
   10.8583   -2.6527   20.7222 C   0  0  0  0  0  0  0  0  0  0  0  0
   10.6412   -3.5089   21.7936 C   0  0  0  0  0  0  0  0  0  0  0  0
   10.4972   -3.8968   24.1589 C   0  0  0  0  0  0  0  0  0  0  0  0
    5.9260   -8.2736   16.5517 C   0  0  0  0  0  0  0  0  0  0  0  0
    3.8816   -9.1166   17.2493 C   0  0  0  0  0  0  0  0  0  0  0  0
   10.1297   -1.6575   23.2324 C   0  0  0  0  0  0  0  0  0  0  0  0
    9.4684   -1.6929   26.7263 F   0  0  0  0  0  0  0  0  0  0  0  0
    7.7963   -7.7906   17.9837 C   0  0  0  0  0  0  0  0  0  0  0  0
   10.5884   -3.0725   16.7902 O   0  0  0  0  0  0  0  0  0  0  0  0
   10.4323   -5.3494   20.3516 C   0  0  0  0  0  0  0  0  0  0  0  0
    7.1156   -7.5454   16.8218 C   0  0  0  0  0  0  0  0  0  0  0  0
   10.3885   -4.4388   19.2773 C   0  0  0  0  0  0  0  0  0  0  0  0
    4.5160   -9.3822   15.0841 C   0  0  0  0  0  0  0  0  0  0  0  0
  1  3  4  0
  1 24  4  0
  2  6  4  0
  2 15  4  0
  3  5  4  0
  3  6  4  0
  4 21  4  0
  4 29  4  0
  5 15  4  0
  5 28  1  0
  6 16  4  0
  7 18  4  0
  7 26  4  0
  8 18  1  0
  8 19  4  0
  8 22  4  0
  9 12  4  0
  9 19  4  0
 10 12  4  0
 10 22  4  0
 11 20  4  0
 11 21  4  0
 12 23  1  0
 13 20  4  0
 13 29  4  0
 14 17  4  0
 14 28  4  0
 15 25  2  0
 16 27  4  0
 17 18  4  0
 20 27  1  0
 24 27  4  0
 26 28  4  0
M  END
$$$$

 Created by Python create_sdf_string function

 29 33  0  0  0  0  0  0  0  0999 V2000
    8.8270   -7.0288   18.4251 C   0  0  0  0  0  0  0  0  0  0  0  0
    9.1576   -4.6236   15.8860 O   0  0  0  0  0  0  0  0  0  0  0  0
    9.1509   -5.9108   17.7177 C   0  0  0  0  0  0  0  0  0  0  0  0
    3.6373   -9.5349   16.0582 N   0  0  0  0  0  0  0  0  0  0  0  0
    9.9275   -4.8001   18.0438 N   0  0  0  0  0  0  0  0  0  0  0  0
    8.5908   -5.7425   16.4412 C   0  0  0  0  0  0  0  0  0  0  0  0
   10.5993   -4.8981   21.6068 C   0  0  0  0  0  0  0  0  0  0  0  0
   10.4258   -3.0106   23.0998 C   0  0  0  0  0  0  0  0  0  0  0  0
   10.2148   -3.4364   25.4200 C   0  0  0  0  0  0  0  0  0  0  0  0
    9.7853   -1.1840   24.4927 C   0  0  0  0  0  0  0  0  0  0  0  0
    5.0276   -8.5227   17.5352 C   0  0  0  0  0  0  0  0  0  0  0  0
    9.8187   -2.0895   25.5800 C   0  0  0  0  0  0  0  0  0  0  0  0
    5.6473   -8.7216   15.3158 C   0  0  0  0  0  0  0  0  0  0  0  0
   10.7581   -3.1233   19.4720 N   0  0  0  0  0  0  0  0  0  0  0  0
    9.9571   -4.0573   16.8866 C   0  0  0  0  0  0  0  0  0  0  0  0
    7.6213   -6.5618   16.0087 C   0  0  0  0  0  0  0  0  0  0  0  0
   10.8583   -2.6527   20.7222 C   0  0  0  0  0  0  0  0  0  0  0  0
   10.6412   -3.5089   21.7936 C   0  0  0  0  0  0  0  0  0  0  0  0
   10.4972   -3.8968   24.1589 C   0  0  0  0  0  0  0  0  0  0  0  0
    5.9260   -8.2736   16.5517 C   0  0  0  0  0  0  0  0  0  0  0  0
    3.8816   -9.1166   17.2493 C   0  0  0  0  0  0  0  0  0  0  0  0
   10.1297   -1.6575   23.2324 C   0  0  0  0  0  0  0  0  0  0  0  0
    9.4684   -1.6929   26.7263 F   0  0  0  0  0  0  0  0  0  0  0  0
    7.7963   -7.7906   17.9837 C   0  0  0  0  0  0  0  0  0  0  0  0
   10.5884   -3.0725   16.7902 O   0  0  0  0  0  0  0  0  0  0  0  0
   10.4323   -5.3494   20.3516 C   0  0  0  0  0  0  0  0  0  0  0  0
    7.1156   -7.5454   16.8218 C   0  0  0  0  0  0  0  0  0  0  0  0
   10.3885   -4.4388   19.2773 C   0  0  0  0  0  0  0  0  0  0  0  0
    4.5160   -9.3822   15.0841 C   0  0  0  0  0  0  0  0  0  0  0  0
  1  3  4  0
  1 24  4  0
  2  6  4  0
  2 15  4  0
  3  5  4  0
  3  6  4  0
  4 21  4  0
  4 29  4  0
  5 15  4  0
  5 28  1  0
  6 16  4  0
  7 18  4  0
  7 26  4  0
  8 18  1  0
  8 19  4  0
  8 22  4  0
  9 12  4  0
  9 19  4  0
 10 12  4  0
 10 22  4  0
 11 20  4  0
 11 21  4  0
 12 23  1  0
 13 20  4  0
 13 29  4  0
 14 17  4  0
 14 28  4  0
 15 25  2  0
 16 27  4  0
 17 18  4  0
 20 27  1  0
 24 27  4  0
 26 28  4  0
M  END
$$$$

 Created by Python create_sdf_string function

 29 33  0  0  0  0  0  0  0  0999 V2000
    8.8270   -7.0288   18.4251 C   0  0  0  0  0  0  0  0  0  0  0  0
    9.1576   -4.6236   15.8860 O   0  0  0  0  0  0  0  0  0  0  0  0
    9.1509   -5.9108   17.7177 C   0  0  0  0  0  0  0  0  0  0  0  0
    3.6373   -9.5349   16.0582 N   0  0  0  0  0  0  0  0  0  0  0  0
    9.9275   -4.8001   18.0438 N   0  0  0  0  0  0  0  0  0  0  0  0
    8.5908   -5.7425   16.4412 C   0  0  0  0  0  0  0  0  0  0  0  0
   10.5993   -4.8981   21.6068 C   0  0  0  0  0  0  0  0  0  0  0  0
   10.4258   -3.0106   23.0998 C   0  0  0  0  0  0  0  0  0  0  0  0
   10.2148   -3.4364   25.4200 C   0  0  0  0  0  0  0  0  0  0  0  0
    9.7853   -1.1840   24.4927 C   0  0  0  0  0  0  0  0  0  0  0  0
    5.0276   -8.5227   17.5352 C   0  0  0  0  0  0  0  0  0  0  0  0
    9.8187   -2.0895   25.5800 C   0  0  0  0  0  0  0  0  0  0  0  0
    5.6473   -8.7216   15.3158 C   0  0  0  0  0  0  0  0  0  0  0  0
   10.7581   -3.1233   19.4720 N   0  0  0  0  0  0  0  0  0  0  0  0
    9.9571   -4.0573   16.8866 C   0  0  0  0  0  0  0  0  0  0  0  0
    7.6213   -6.5618   16.0087 C   0  0  0  0  0  0  0  0  0  0  0  0
   10.8583   -2.6527   20.7222 C   0  0  0  0  0  0  0  0  0  0  0  0
   10.6412   -3.5089   21.7936 C   0  0  0  0  0  0  0  0  0  0  0  0
   10.4972   -3.8968   24.1589 C   0  0  0  0  0  0  0  0  0  0  0  0
    5.9260   -8.2736   16.5517 C   0  0  0  0  0  0  0  0  0  0  0  0
    3.8816   -9.1166   17.2493 C   0  0  0  0  0  0  0  0  0  0  0  0
   10.1297   -1.6575   23.2324 C   0  0  0  0  0  0  0  0  0  0  0  0
    9.4684   -1.6929   26.7263 F   0  0  0  0  0  0  0  0  0  0  0  0
    7.7963   -7.7906   17.9837 C   0  0  0  0  0  0  0  0  0  0  0  0
   10.5884   -3.0725   16.7902 O   0  0  0  0  0  0  0  0  0  0  0  0
   10.4323   -5.3494   20.3516 C   0  0  0  0  0  0  0  0  0  0  0  0
    7.1156   -7.5454   16.8218 C   0  0  0  0  0  0  0  0  0  0  0  0
   10.3885   -4.4388   19.2773 C   0  0  0  0  0  0  0  0  0  0  0  0
    4.5160   -9.3822   15.0841 C   0  0  0  0  0  0  0  0  0  0  0  0
  1  3  4  0
  1 24  4  0
  2  6  4  0
  2 15  4  0
  3  5  4  0
  3  6  4  0
  4 21  4  0
  4 29  4  0
  5 15  4  0
  5 28  1  0
  6 16  4  0
  7 18  4  0
  7 26  4  0
  8 18  1  0
  8 19  4  0
  8 22  4  0
  9 12  4  0
  9 19  4  0
 10 12  4  0
 10 22  4  0
 11 20  4  0
 11 21  4  0
 12 23  1  0
 13 20  4  0
 13 29  4  0
 14 17  4  0
 14 28  4  0
 15 25  2  0
 16 27  4  0
 17 18  4  0
 20 27  1  0
 24 27  4  0
 26 28  4  0
M  END
$$$$

 Created by Python create_sdf_string function

 29 33  0  0  0  0  0  0  0  0999 V2000
    8.8270   -7.0288   18.4251 C   0  0  0  0  0  0  0  0  0  0  0  0
    9.1576   -4.6236   15.8860 O   0  0  0  0  0  0  0  0  0  0  0  0
    9.1509   -5.9108   17.7177 C   0  0  0  0  0  0  0  0  0  0  0  0
    3.6373   -9.5349   16.0582 N   0  0  0  0  0  0  0  0  0  0  0  0
    9.9275   -4.8001   18.0438 N   0  0  0  0  0  0  0  0  0  0  0  0
    8.5908   -5.7425   16.4412 C   0  0  0  0  0  0  0  0  0  0  0  0
   10.5993   -4.8981   21.6068 C   0  0  0  0  0  0  0  0  0  0  0  0
   10.4258   -3.0106   23.0998 C   0  0  0  0  0  0  0  0  0  0  0  0
   10.2148   -3.4364   25.4200 C   0  0  0  0  0  0  0  0  0  0  0  0
    9.7853   -1.1840   24.4927 C   0  0  0  0  0  0  0  0  0  0  0  0
    5.0276   -8.5227   17.5352 C   0  0  0  0  0  0  0  0  0  0  0  0
    9.8187   -2.0895   25.5800 C   0  0  0  0  0  0  0  0  0  0  0  0
    5.6473   -8.7216   15.3158 C   0  0  0  0  0  0  0  0  0  0  0  0
   10.7581   -3.1233   19.4720 N   0  0  0  0  0  0  0  0  0  0  0  0
    9.9571   -4.0573   16.8866 C   0  0  0  0  0  0  0  0  0  0  0  0
    7.6213   -6.5618   16.0087 C   0  0  0  0  0  0  0  0  0  0  0  0
   10.8583   -2.6527   20.7222 C   0  0  0  0  0  0  0  0  0  0  0  0
   10.6412   -3.5089   21.7936 C   0  0  0  0  0  0  0  0  0  0  0  0
   10.4972   -3.8968   24.1589 C   0  0  0  0  0  0  0  0  0  0  0  0
    5.9260   -8.2736   16.5517 C   0  0  0  0  0  0  0  0  0  0  0  0
    3.8816   -9.1166   17.2493 C   0  0  0  0  0  0  0  0  0  0  0  0
   10.1297   -1.6575   23.2324 C   0  0  0  0  0  0  0  0  0  0  0  0
    9.4684   -1.6929   26.7263 F   0  0  0  0  0  0  0  0  0  0  0  0
    7.7963   -7.7906   17.9837 C   0  0  0  0  0  0  0  0  0  0  0  0
   10.5884   -3.0725   16.7902 O   0  0  0  0  0  0  0  0  0  0  0  0
   10.4323   -5.3494   20.3516 C   0  0  0  0  0  0  0  0  0  0  0  0
    7.1156   -7.5454   16.8218 C   0  0  0  0  0  0  0  0  0  0  0  0
   10.3885   -4.4388   19.2773 C   0  0  0  0  0  0  0  0  0  0  0  0
    4.5160   -9.3822   15.0841 C   0  0  0  0  0  0  0  0  0  0  0  0
  1  3  4  0
  1 24  4  0
  2  6  4  0
  2 15  4  0
  3  5  4  0
  3  6  4  0
  4 21  4  0
  4 29  4  0
  5 15  4  0
  5 28  1  0
  6 16  4  0
  7 18  4  0
  7 26  4  0
  8 18  1  0
  8 19  4  0
  8 22  4  0
  9 12  4  0
  9 19  4  0
 10 12  4  0
 10 22  4  0
 11 20  4  0
 11 21  4  0
 12 23  1  0
 13 20  4  0
 13 29  4  0
 14 17  4  0
 14 28  4  0
 15 25  2  0
 16 27  4  0
 17 18  4  0
 20 27  1  0
 24 27  4  0
 26 28  4  0
M  END
$$$$

 Created by Python create_sdf_string function

 29 33  0  0  0  0  0  0  0  0999 V2000
    8.8270   -7.0288   18.4251 C   0  0  0  0  0  0  0  0  0  0  0  0
    9.1576   -4.6236   15.8860 O   0  0  0  0  0  0  0  0  0  0  0  0
    9.1509   -5.9108   17.7177 C   0  0  0  0  0  0  0  0  0  0  0  0
    3.6373   -9.5349   16.0582 N   0  0  0  0  0  0  0  0  0  0  0  0
    9.9275   -4.8001   18.0438 N   0  0  0  0  0  0  0  0  0  0  0  0
    8.5908   -5.7425   16.4412 C   0  0  0  0  0  0  0  0  0  0  0  0
   10.5993   -4.8981   21.6068 C   0  0  0  0  0  0  0  0  0  0  0  0
   10.4258   -3.0106   23.0998 C   0  0  0  0  0  0  0  0  0  0  0  0
   10.2148   -3.4364   25.4200 C   0  0  0  0  0  0  0  0  0  0  0  0
    9.7853   -1.1840   24.4927 C   0  0  0  0  0  0  0  0  0  0  0  0
    5.0276   -8.5227   17.5352 C   0  0  0  0  0  0  0  0  0  0  0  0
    9.8187   -2.0895   25.5800 C   0  0  0  0  0  0  0  0  0  0  0  0
    5.6473   -8.7216   15.3158 C   0  0  0  0  0  0  0  0  0  0  0  0
   10.7581   -3.1233   19.4720 N   0  0  0  0  0  0  0  0  0  0  0  0
    9.9571   -4.0573   16.8866 C   0  0  0  0  0  0  0  0  0  0  0  0
    7.6213   -6.5618   16.0087 C   0  0  0  0  0  0  0  0  0  0  0  0
   10.8583   -2.6527   20.7222 C   0  0  0  0  0  0  0  0  0  0  0  0
   10.6412   -3.5089   21.7936 C   0  0  0  0  0  0  0  0  0  0  0  0
   10.4972   -3.8968   24.1589 C   0  0  0  0  0  0  0  0  0  0  0  0
    5.9260   -8.2736   16.5517 C   0  0  0  0  0  0  0  0  0  0  0  0
    3.8816   -9.1166   17.2493 C   0  0  0  0  0  0  0  0  0  0  0  0
   10.1297   -1.6575   23.2324 C   0  0  0  0  0  0  0  0  0  0  0  0
    9.4684   -1.6929   26.7263 F   0  0  0  0  0  0  0  0  0  0  0  0
    7.7963   -7.7906   17.9837 C   0  0  0  0  0  0  0  0  0  0  0  0
   10.5884   -3.0725   16.7902 O   0  0  0  0  0  0  0  0  0  0  0  0
   10.4323   -5.3494   20.3516 C   0  0  0  0  0  0  0  0  0  0  0  0
    7.1156   -7.5454   16.8218 C   0  0  0  0  0  0  0  0  0  0  0  0
   10.3885   -4.4388   19.2773 C   0  0  0  0  0  0  0  0  0  0  0  0
    4.5160   -9.3822   15.0841 C   0  0  0  0  0  0  0  0  0  0  0  0
  1  3  4  0
  1 24  4  0
  2  6  4  0
  2 15  4  0
  3  5  4  0
  3  6  4  0
  4 21  4  0
  4 29  4  0
  5 15  4  0
  5 28  1  0
  6 16  4  0
  7 18  4  0
  7 26  4  0
  8 18  1  0
  8 19  4  0
  8 22  4  0
  9 12  4  0
  9 19  4  0
 10 12  4  0
 10 22  4  0
 11 20  4  0
 11 21  4  0
 12 23  1  0
 13 20  4  0
 13 29  4  0
 14 17  4  0
 14 28  4  0
 15 25  2  0
 16 27  4  0
 17 18  4  0
 20 27  1  0
 24 27  4  0
 26 28  4  0
M  END
$$$$

 Created by Python create_sdf_string function

 29 33  0  0  0  0  0  0  0  0999 V2000
    8.8270   -7.0288   18.4251 C   0  0  0  0  0  0  0  0  0  0  0  0
    9.1576   -4.6236   15.8860 O   0  0  0  0  0  0  0  0  0  0  0  0
    9.1509   -5.9108   17.7177 C   0  0  0  0  0  0  0  0  0  0  0  0
    3.6373   -9.5349   16.0582 N   0  0  0  0  0  0  0  0  0  0  0  0
    9.9275   -4.8001   18.0438 N   0  0  0  0  0  0  0  0  0  0  0  0
    8.5908   -5.7425   16.4412 C   0  0  0  0  0  0  0  0  0  0  0  0
   10.5993   -4.8981   21.6068 C   0  0  0  0  0  0  0  0  0  0  0  0
   10.4258   -3.0106   23.0998 C   0  0  0  0  0  0  0  0  0  0  0  0
   10.2148   -3.4364   25.4200 C   0  0  0  0  0  0  0  0  0  0  0  0
    9.7853   -1.1840   24.4927 C   0  0  0  0  0  0  0  0  0  0  0  0
    5.0276   -8.5227   17.5352 C   0  0  0  0  0  0  0  0  0  0  0  0
    9.8187   -2.0895   25.5800 C   0  0  0  0  0  0  0  0  0  0  0  0
    5.6473   -8.7216   15.3158 C   0  0  0  0  0  0  0  0  0  0  0  0
   10.7581   -3.1233   19.4720 N   0  0  0  0  0  0  0  0  0  0  0  0
    9.9571   -4.0573   16.8866 C   0  0  0  0  0  0  0  0  0  0  0  0
    7.6213   -6.5618   16.0087 C   0  0  0  0  0  0  0  0  0  0  0  0
   10.8583   -2.6527   20.7222 C   0  0  0  0  0  0  0  0  0  0  0  0
   10.6412   -3.5089   21.7936 C   0  0  0  0  0  0  0  0  0  0  0  0
   10.4972   -3.8968   24.1589 C   0  0  0  0  0  0  0  0  0  0  0  0
    5.9260   -8.2736   16.5517 C   0  0  0  0  0  0  0  0  0  0  0  0
    3.8816   -9.1166   17.2493 C   0  0  0  0  0  0  0  0  0  0  0  0
   10.1297   -1.6575   23.2324 C   0  0  0  0  0  0  0  0  0  0  0  0
    9.4684   -1.6929   26.7263 F   0  0  0  0  0  0  0  0  0  0  0  0
    7.7963   -7.7906   17.9837 C   0  0  0  0  0  0  0  0  0  0  0  0
   10.5884   -3.0725   16.7902 O   0  0  0  0  0  0  0  0  0  0  0  0
   10.4323   -5.3494   20.3516 C   0  0  0  0  0  0  0  0  0  0  0  0
    7.1156   -7.5454   16.8218 C   0  0  0  0  0  0  0  0  0  0  0  0
   10.3885   -4.4388   19.2773 C   0  0  0  0  0  0  0  0  0  0  0  0
    4.5160   -9.3822   15.0841 C   0  0  0  0  0  0  0  0  0  0  0  0
  1  3  4  0
  1 24  4  0
  2  6  4  0
  2 15  4  0
  3  5  4  0
  3  6  4  0
  4 21  4  0
  4 29  4  0
  5 15  4  0
  5 28  1  0
  6 16  4  0
  7 18  4  0
  7 26  4  0
  8 18  1  0
  8 19  4  0
  8 22  4  0
  9 12  4  0
  9 19  4  0
 10 12  4  0
 10 22  4  0
 11 20  4  0
 11 21  4  0
 12 23  1  0
 13 20  4  0
 13 29  4  0
 14 17  4  0
 14 28  4  0
 15 25  2  0
 16 27  4  0
 17 18  4  0
 20 27  1  0
 24 27  4  0
 26 28  4  0
M  END
$$$$

 Created by Python create_sdf_string function

 29 33  0  0  0  0  0  0  0  0999 V2000
    8.8270   -7.0288   18.4251 C   0  0  0  0  0  0  0  0  0  0  0  0
    9.1576   -4.6236   15.8860 O   0  0  0  0  0  0  0  0  0  0  0  0
    9.1509   -5.9108   17.7177 C   0  0  0  0  0  0  0  0  0  0  0  0
    3.6373   -9.5349   16.0582 N   0  0  0  0  0  0  0  0  0  0  0  0
    9.9275   -4.8001   18.0438 N   0  0  0  0  0  0  0  0  0  0  0  0
    8.5908   -5.7425   16.4412 C   0  0  0  0  0  0  0  0  0  0  0  0
   10.5993   -4.8981   21.6068 C   0  0  0  0  0  0  0  0  0  0  0  0
   10.4258   -3.0106   23.0998 C   0  0  0  0  0  0  0  0  0  0  0  0
   10.2148   -3.4364   25.4200 C   0  0  0  0  0  0  0  0  0  0  0  0
    9.7853   -1.1840   24.4927 C   0  0  0  0  0  0  0  0  0  0  0  0
    5.0276   -8.5227   17.5352 C   0  0  0  0  0  0  0  0  0  0  0  0
    9.8187   -2.0895   25.5800 C   0  0  0  0  0  0  0  0  0  0  0  0
    5.6473   -8.7216   15.3158 C   0  0  0  0  0  0  0  0  0  0  0  0
   10.7581   -3.1233   19.4720 N   0  0  0  0  0  0  0  0  0  0  0  0
    9.9571   -4.0573   16.8866 C   0  0  0  0  0  0  0  0  0  0  0  0
    7.6213   -6.5618   16.0087 C   0  0  0  0  0  0  0  0  0  0  0  0
   10.8583   -2.6527   20.7222 C   0  0  0  0  0  0  0  0  0  0  0  0
   10.6412   -3.5089   21.7936 C   0  0  0  0  0  0  0  0  0  0  0  0
   10.4972   -3.8968   24.1589 C   0  0  0  0  0  0  0  0  0  0  0  0
    5.9260   -8.2736   16.5517 C   0  0  0  0  0  0  0  0  0  0  0  0
    3.8816   -9.1166   17.2493 C   0  0  0  0  0  0  0  0  0  0  0  0
   10.1297   -1.6575   23.2324 C   0  0  0  0  0  0  0  0  0  0  0  0
    9.4684   -1.6929   26.7263 F   0  0  0  0  0  0  0  0  0  0  0  0
    7.7963   -7.7906   17.9837 C   0  0  0  0  0  0  0  0  0  0  0  0
   10.5884   -3.0725   16.7902 O   0  0  0  0  0  0  0  0  0  0  0  0
   10.4323   -5.3494   20.3516 C   0  0  0  0  0  0  0  0  0  0  0  0
    7.1156   -7.5454   16.8218 C   0  0  0  0  0  0  0  0  0  0  0  0
   10.3885   -4.4388   19.2773 C   0  0  0  0  0  0  0  0  0  0  0  0
    4.5160   -9.3822   15.0841 C   0  0  0  0  0  0  0  0  0  0  0  0
  1  3  4  0
  1 24  4  0
  2  6  4  0
  2 15  4  0
  3  5  4  0
  3  6  4  0
  4 21  4  0
  4 29  4  0
  5 15  4  0
  5 28  1  0
  6 16  4  0
  7 18  4  0
  7 26  4  0
  8 18  1  0
  8 19  4  0
  8 22  4  0
  9 12  4  0
  9 19  4  0
 10 12  4  0
 10 22  4  0
 11 20  4  0
 11 21  4  0
 12 23  1  0
 13 20  4  0
 13 29  4  0
 14 17  4  0
 14 28  4  0
 15 25  2  0
 16 27  4  0
 17 18  4  0
 20 27  1  0
 24 27  4  0
 26 28  4  0
M  END
$$$$

 Created by Python create_sdf_string function

 29 33  0  0  0  0  0  0  0  0999 V2000
    8.8270   -7.0288   18.4251 C   0  0  0  0  0  0  0  0  0  0  0  0
    9.1576   -4.6236   15.8860 O   0  0  0  0  0  0  0  0  0  0  0  0
    9.1509   -5.9108   17.7177 C   0  0  0  0  0  0  0  0  0  0  0  0
    3.6373   -9.5349   16.0582 N   0  0  0  0  0  0  0  0  0  0  0  0
    9.9275   -4.8001   18.0438 N   0  0  0  0  0  0  0  0  0  0  0  0
    8.5908   -5.7425   16.4412 C   0  0  0  0  0  0  0  0  0  0  0  0
   10.5993   -4.8981   21.6068 C   0  0  0  0  0  0  0  0  0  0  0  0
   10.4258   -3.0106   23.0998 C   0  0  0  0  0  0  0  0  0  0  0  0
   10.2148   -3.4364   25.4200 C   0  0  0  0  0  0  0  0  0  0  0  0
    9.7853   -1.1840   24.4927 C   0  0  0  0  0  0  0  0  0  0  0  0
    5.0276   -8.5227   17.5352 C   0  0  0  0  0  0  0  0  0  0  0  0
    9.8187   -2.0895   25.5800 C   0  0  0  0  0  0  0  0  0  0  0  0
    5.6473   -8.7216   15.3158 C   0  0  0  0  0  0  0  0  0  0  0  0
   10.7581   -3.1233   19.4720 N   0  0  0  0  0  0  0  0  0  0  0  0
    9.9571   -4.0573   16.8866 C   0  0  0  0  0  0  0  0  0  0  0  0
    7.6213   -6.5618   16.0087 C   0  0  0  0  0  0  0  0  0  0  0  0
   10.8583   -2.6527   20.7222 C   0  0  0  0  0  0  0  0  0  0  0  0
   10.6412   -3.5089   21.7936 C   0  0  0  0  0  0  0  0  0  0  0  0
   10.4972   -3.8968   24.1589 C   0  0  0  0  0  0  0  0  0  0  0  0
    5.9260   -8.2736   16.5517 C   0  0  0  0  0  0  0  0  0  0  0  0
    3.8816   -9.1166   17.2493 C   0  0  0  0  0  0  0  0  0  0  0  0
   10.1297   -1.6575   23.2324 C   0  0  0  0  0  0  0  0  0  0  0  0
    9.4684   -1.6929   26.7263 F   0  0  0  0  0  0  0  0  0  0  0  0
    7.7963   -7.7906   17.9837 C   0  0  0  0  0  0  0  0  0  0  0  0
   10.5884   -3.0725   16.7902 O   0  0  0  0  0  0  0  0  0  0  0  0
   10.4323   -5.3494   20.3516 C   0  0  0  0  0  0  0  0  0  0  0  0
    7.1156   -7.5454   16.8218 C   0  0  0  0  0  0  0  0  0  0  0  0
   10.3885   -4.4388   19.2773 C   0  0  0  0  0  0  0  0  0  0  0  0
    4.5160   -9.3822   15.0841 C   0  0  0  0  0  0  0  0  0  0  0  0
  1  3  4  0
  1 24  4  0
  2  6  4  0
  2 15  4  0
  3  5  4  0
  3  6  4  0
  4 21  4  0
  4 29  4  0
  5 15  4  0
  5 28  1  0
  6 16  4  0
  7 18  4  0
  7 26  4  0
  8 18  1  0
  8 19  4  0
  8 22  4  0
  9 12  4  0
  9 19  4  0
 10 12  4  0
 10 22  4  0
 11 20  4  0
 11 21  4  0
 12 23  1  0
 13 20  4  0
 13 29  4  0
 14 17  4  0
 14 28  4  0
 15 25  2  0
 16 27  4  0
 17 18  4  0
 20 27  1  0
 24 27  4  0
 26 28  4  0
M  END
$$$$

 Created by Python create_sdf_string function

 29 33  0  0  0  0  0  0  0  0999 V2000
    8.8270   -7.0288   18.4251 C   0  0  0  0  0  0  0  0  0  0  0  0
    9.1576   -4.6236   15.8860 O   0  0  0  0  0  0  0  0  0  0  0  0
    9.1509   -5.9108   17.7177 C   0  0  0  0  0  0  0  0  0  0  0  0
    3.6373   -9.5349   16.0582 N   0  0  0  0  0  0  0  0  0  0  0  0
    9.9275   -4.8001   18.0438 N   0  0  0  0  0  0  0  0  0  0  0  0
    8.5908   -5.7425   16.4412 C   0  0  0  0  0  0  0  0  0  0  0  0
   10.5993   -4.8981   21.6068 C   0  0  0  0  0  0  0  0  0  0  0  0
   10.4258   -3.0106   23.0998 C   0  0  0  0  0  0  0  0  0  0  0  0
   10.2148   -3.4364   25.4200 C   0  0  0  0  0  0  0  0  0  0  0  0
    9.7853   -1.1840   24.4927 C   0  0  0  0  0  0  0  0  0  0  0  0
    5.0276   -8.5227   17.5352 C   0  0  0  0  0  0  0  0  0  0  0  0
    9.8187   -2.0895   25.5800 C   0  0  0  0  0  0  0  0  0  0  0  0
    5.6473   -8.7216   15.3158 C   0  0  0  0  0  0  0  0  0  0  0  0
   10.7581   -3.1233   19.4720 N   0  0  0  0  0  0  0  0  0  0  0  0
    9.9571   -4.0573   16.8866 C   0  0  0  0  0  0  0  0  0  0  0  0
    7.6213   -6.5618   16.0087 C   0  0  0  0  0  0  0  0  0  0  0  0
   10.8583   -2.6527   20.7222 C   0  0  0  0  0  0  0  0  0  0  0  0
   10.6412   -3.5089   21.7936 C   0  0  0  0  0  0  0  0  0  0  0  0
   10.4972   -3.8968   24.1589 C   0  0  0  0  0  0  0  0  0  0  0  0
    5.9260   -8.2736   16.5517 C   0  0  0  0  0  0  0  0  0  0  0  0
    3.8816   -9.1166   17.2493 C   0  0  0  0  0  0  0  0  0  0  0  0
   10.1297   -1.6575   23.2324 C   0  0  0  0  0  0  0  0  0  0  0  0
    9.4684   -1.6929   26.7263 F   0  0  0  0  0  0  0  0  0  0  0  0
    7.7963   -7.7906   17.9837 C   0  0  0  0  0  0  0  0  0  0  0  0
   10.5884   -3.0725   16.7902 O   0  0  0  0  0  0  0  0  0  0  0  0
   10.4323   -5.3494   20.3516 C   0  0  0  0  0  0  0  0  0  0  0  0
    7.1156   -7.5454   16.8218 C   0  0  0  0  0  0  0  0  0  0  0  0
   10.3885   -4.4388   19.2773 C   0  0  0  0  0  0  0  0  0  0  0  0
    4.5160   -9.3822   15.0841 C   0  0  0  0  0  0  0  0  0  0  0  0
  1  3  4  0
  1 24  4  0
  2  6  4  0
  2 15  4  0
  3  5  4  0
  3  6  4  0
  4 21  4  0
  4 29  4  0
  5 15  4  0
  5 28  1  0
  6 16  4  0
  7 18  4  0
  7 26  4  0
  8 18  1  0
  8 19  4  0
  8 22  4  0
  9 12  4  0
  9 19  4  0
 10 12  4  0
 10 22  4  0
 11 20  4  0
 11 21  4  0
 12 23  1  0
 13 20  4  0
 13 29  4  0
 14 17  4  0
 14 28  4  0
 15 25  2  0
 16 27  4  0
 17 18  4  0
 20 27  1  0
 24 27  4  0
 26 28  4  0
M  END
$$$$

 Created by Python create_sdf_string function

 29 33  0  0  0  0  0  0  0  0999 V2000
    8.8270   -7.0288   18.4251 C   0  0  0  0  0  0  0  0  0  0  0  0
    9.1576   -4.6236   15.8860 O   0  0  0  0  0  0  0  0  0  0  0  0
    9.1509   -5.9108   17.7177 C   0  0  0  0  0  0  0  0  0  0  0  0
    3.6373   -9.5349   16.0582 N   0  0  0  0  0  0  0  0  0  0  0  0
    9.9275   -4.8001   18.0438 N   0  0  0  0  0  0  0  0  0  0  0  0
    8.5908   -5.7425   16.4412 C   0  0  0  0  0  0  0  0  0  0  0  0
   10.5993   -4.8981   21.6068 C   0  0  0  0  0  0  0  0  0  0  0  0
   10.4258   -3.0106   23.0998 C   0  0  0  0  0  0  0  0  0  0  0  0
   10.2148   -3.4364   25.4200 C   0  0  0  0  0  0  0  0  0  0  0  0
    9.7853   -1.1840   24.4927 C   0  0  0  0  0  0  0  0  0  0  0  0
    5.0276   -8.5227   17.5352 C   0  0  0  0  0  0  0  0  0  0  0  0
    9.8187   -2.0895   25.5800 C   0  0  0  0  0  0  0  0  0  0  0  0
    5.6473   -8.7216   15.3158 C   0  0  0  0  0  0  0  0  0  0  0  0
   10.7581   -3.1233   19.4720 N   0  0  0  0  0  0  0  0  0  0  0  0
    9.9571   -4.0573   16.8866 C   0  0  0  0  0  0  0  0  0  0  0  0
    7.6213   -6.5618   16.0087 C   0  0  0  0  0  0  0  0  0  0  0  0
   10.8583   -2.6527   20.7222 C   0  0  0  0  0  0  0  0  0  0  0  0
   10.6412   -3.5089   21.7936 C   0  0  0  0  0  0  0  0  0  0  0  0
   10.4972   -3.8968   24.1589 C   0  0  0  0  0  0  0  0  0  0  0  0
    5.9260   -8.2736   16.5517 C   0  0  0  0  0  0  0  0  0  0  0  0
    3.8816   -9.1166   17.2493 C   0  0  0  0  0  0  0  0  0  0  0  0
   10.1297   -1.6575   23.2324 C   0  0  0  0  0  0  0  0  0  0  0  0
    9.4684   -1.6929   26.7263 F   0  0  0  0  0  0  0  0  0  0  0  0
    7.7963   -7.7906   17.9837 C   0  0  0  0  0  0  0  0  0  0  0  0
   10.5884   -3.0725   16.7902 O   0  0  0  0  0  0  0  0  0  0  0  0
   10.4323   -5.3494   20.3516 C   0  0  0  0  0  0  0  0  0  0  0  0
    7.1156   -7.5454   16.8218 C   0  0  0  0  0  0  0  0  0  0  0  0
   10.3885   -4.4388   19.2773 C   0  0  0  0  0  0  0  0  0  0  0  0
    4.5160   -9.3822   15.0841 C   0  0  0  0  0  0  0  0  0  0  0  0
  1  3  4  0
  1 24  4  0
  2  6  4  0
  2 15  4  0
  3  5  4  0
  3  6  4  0
  4 21  4  0
  4 29  4  0
  5 15  4  0
  5 28  1  0
  6 16  4  0
  7 18  4  0
  7 26  4  0
  8 18  1  0
  8 19  4  0
  8 22  4  0
  9 12  4  0
  9 19  4  0
 10 12  4  0
 10 22  4  0
 11 20  4  0
 11 21  4  0
 12 23  1  0
 13 20  4  0
 13 29  4  0
 14 17  4  0
 14 28  4  0
 15 25  2  0
 16 27  4  0
 17 18  4  0
 20 27  1  0
 24 27  4  0
 26 28  4  0
M  END
$$$$

 Created by Python create_sdf_string function

 29 33  0  0  0  0  0  0  0  0999 V2000
    8.8270   -7.0288   18.4251 C   0  0  0  0  0  0  0  0  0  0  0  0
    9.1576   -4.6236   15.8860 O   0  0  0  0  0  0  0  0  0  0  0  0
    9.1509   -5.9108   17.7177 C   0  0  0  0  0  0  0  0  0  0  0  0
    3.6373   -9.5349   16.0582 N   0  0  0  0  0  0  0  0  0  0  0  0
    9.9275   -4.8001   18.0438 N   0  0  0  0  0  0  0  0  0  0  0  0
    8.5908   -5.7425   16.4412 C   0  0  0  0  0  0  0  0  0  0  0  0
   10.5993   -4.8981   21.6068 C   0  0  0  0  0  0  0  0  0  0  0  0
   10.4258   -3.0106   23.0998 C   0  0  0  0  0  0  0  0  0  0  0  0
   10.2148   -3.4364   25.4200 C   0  0  0  0  0  0  0  0  0  0  0  0
    9.7853   -1.1840   24.4927 C   0  0  0  0  0  0  0  0  0  0  0  0
    5.0276   -8.5227   17.5352 C   0  0  0  0  0  0  0  0  0  0  0  0
    9.8187   -2.0895   25.5800 C   0  0  0  0  0  0  0  0  0  0  0  0
    5.6473   -8.7216   15.3158 C   0  0  0  0  0  0  0  0  0  0  0  0
   10.7581   -3.1233   19.4720 N   0  0  0  0  0  0  0  0  0  0  0  0
    9.9571   -4.0573   16.8866 C   0  0  0  0  0  0  0  0  0  0  0  0
    7.6213   -6.5618   16.0087 C   0  0  0  0  0  0  0  0  0  0  0  0
   10.8583   -2.6527   20.7222 C   0  0  0  0  0  0  0  0  0  0  0  0
   10.6412   -3.5089   21.7936 C   0  0  0  0  0  0  0  0  0  0  0  0
   10.4972   -3.8968   24.1589 C   0  0  0  0  0  0  0  0  0  0  0  0
    5.9260   -8.2736   16.5517 C   0  0  0  0  0  0  0  0  0  0  0  0
    3.8816   -9.1166   17.2493 C   0  0  0  0  0  0  0  0  0  0  0  0
   10.1297   -1.6575   23.2324 C   0  0  0  0  0  0  0  0  0  0  0  0
    9.4684   -1.6929   26.7263 F   0  0  0  0  0  0  0  0  0  0  0  0
    7.7963   -7.7906   17.9837 C   0  0  0  0  0  0  0  0  0  0  0  0
   10.5884   -3.0725   16.7902 O   0  0  0  0  0  0  0  0  0  0  0  0
   10.4323   -5.3494   20.3516 C   0  0  0  0  0  0  0  0  0  0  0  0
    7.1156   -7.5454   16.8218 C   0  0  0  0  0  0  0  0  0  0  0  0
   10.3885   -4.4388   19.2773 C   0  0  0  0  0  0  0  0  0  0  0  0
    4.5160   -9.3822   15.0841 C   0  0  0  0  0  0  0  0  0  0  0  0
  1  3  4  0
  1 24  4  0
  2  6  4  0
  2 15  4  0
  3  5  4  0
  3  6  4  0
  4 21  4  0
  4 29  4  0
  5 15  4  0
  5 28  1  0
  6 16  4  0
  7 18  4  0
  7 26  4  0
  8 18  1  0
  8 19  4  0
  8 22  4  0
  9 12  4  0
  9 19  4  0
 10 12  4  0
 10 22  4  0
 11 20  4  0
 11 21  4  0
 12 23  1  0
 13 20  4  0
 13 29  4  0
 14 17  4  0
 14 28  4  0
 15 25  2  0
 16 27  4  0
 17 18  4  0
 20 27  1  0
 24 27  4  0
 26 28  4  0
M  END
$$$$

 Created by Python create_sdf_string function

 29 33  0  0  0  0  0  0  0  0999 V2000
    8.8270   -7.0288   18.4251 C   0  0  0  0  0  0  0  0  0  0  0  0
    9.1576   -4.6236   15.8860 O   0  0  0  0  0  0  0  0  0  0  0  0
    9.1509   -5.9108   17.7177 C   0  0  0  0  0  0  0  0  0  0  0  0
    3.6373   -9.5349   16.0582 N   0  0  0  0  0  0  0  0  0  0  0  0
    9.9275   -4.8001   18.0438 N   0  0  0  0  0  0  0  0  0  0  0  0
    8.5908   -5.7425   16.4412 C   0  0  0  0  0  0  0  0  0  0  0  0
   10.5993   -4.8981   21.6068 C   0  0  0  0  0  0  0  0  0  0  0  0
   10.4258   -3.0106   23.0998 C   0  0  0  0  0  0  0  0  0  0  0  0
   10.2148   -3.4364   25.4200 C   0  0  0  0  0  0  0  0  0  0  0  0
    9.7853   -1.1840   24.4927 C   0  0  0  0  0  0  0  0  0  0  0  0
    5.0276   -8.5227   17.5352 C   0  0  0  0  0  0  0  0  0  0  0  0
    9.8187   -2.0895   25.5800 C   0  0  0  0  0  0  0  0  0  0  0  0
    5.6473   -8.7216   15.3158 C   0  0  0  0  0  0  0  0  0  0  0  0
   10.7581   -3.1233   19.4720 N   0  0  0  0  0  0  0  0  0  0  0  0
    9.9571   -4.0573   16.8866 C   0  0  0  0  0  0  0  0  0  0  0  0
    7.6213   -6.5618   16.0087 C   0  0  0  0  0  0  0  0  0  0  0  0
   10.8583   -2.6527   20.7222 C   0  0  0  0  0  0  0  0  0  0  0  0
   10.6412   -3.5089   21.7936 C   0  0  0  0  0  0  0  0  0  0  0  0
   10.4972   -3.8968   24.1589 C   0  0  0  0  0  0  0  0  0  0  0  0
    5.9260   -8.2736   16.5517 C   0  0  0  0  0  0  0  0  0  0  0  0
    3.8816   -9.1166   17.2493 C   0  0  0  0  0  0  0  0  0  0  0  0
   10.1297   -1.6575   23.2324 C   0  0  0  0  0  0  0  0  0  0  0  0
    9.4684   -1.6929   26.7263 F   0  0  0  0  0  0  0  0  0  0  0  0
    7.7963   -7.7906   17.9837 C   0  0  0  0  0  0  0  0  0  0  0  0
   10.5884   -3.0725   16.7902 O   0  0  0  0  0  0  0  0  0  0  0  0
   10.4323   -5.3494   20.3516 C   0  0  0  0  0  0  0  0  0  0  0  0
    7.1156   -7.5454   16.8218 C   0  0  0  0  0  0  0  0  0  0  0  0
   10.3885   -4.4388   19.2773 C   0  0  0  0  0  0  0  0  0  0  0  0
    4.5160   -9.3822   15.0841 C   0  0  0  0  0  0  0  0  0  0  0  0
  1  3  4  0
  1 24  4  0
  2  6  4  0
  2 15  4  0
  3  5  4  0
  3  6  4  0
  4 21  4  0
  4 29  4  0
  5 15  4  0
  5 28  1  0
  6 16  4  0
  7 18  4  0
  7 26  4  0
  8 18  1  0
  8 19  4  0
  8 22  4  0
  9 12  4  0
  9 19  4  0
 10 12  4  0
 10 22  4  0
 11 20  4  0
 11 21  4  0
 12 23  1  0
 13 20  4  0
 13 29  4  0
 14 17  4  0
 14 28  4  0
 15 25  2  0
 16 27  4  0
 17 18  4  0
 20 27  1  0
 24 27  4  0
 26 28  4  0
M  END
$$$$

 Created by Python create_sdf_string function

 29 33  0  0  0  0  0  0  0  0999 V2000
    8.8270   -7.0288   18.4251 C   0  0  0  0  0  0  0  0  0  0  0  0
    9.1576   -4.6236   15.8860 O   0  0  0  0  0  0  0  0  0  0  0  0
    9.1509   -5.9108   17.7177 C   0  0  0  0  0  0  0  0  0  0  0  0
    3.6373   -9.5349   16.0582 N   0  0  0  0  0  0  0  0  0  0  0  0
    9.9275   -4.8001   18.0438 N   0  0  0  0  0  0  0  0  0  0  0  0
    8.5908   -5.7425   16.4412 C   0  0  0  0  0  0  0  0  0  0  0  0
   10.5993   -4.8981   21.6068 C   0  0  0  0  0  0  0  0  0  0  0  0
   10.4258   -3.0106   23.0998 C   0  0  0  0  0  0  0  0  0  0  0  0
   10.2148   -3.4364   25.4200 C   0  0  0  0  0  0  0  0  0  0  0  0
    9.7853   -1.1840   24.4927 C   0  0  0  0  0  0  0  0  0  0  0  0
    5.0276   -8.5227   17.5352 C   0  0  0  0  0  0  0  0  0  0  0  0
    9.8187   -2.0895   25.5800 C   0  0  0  0  0  0  0  0  0  0  0  0
    5.6473   -8.7216   15.3158 C   0  0  0  0  0  0  0  0  0  0  0  0
   10.7581   -3.1233   19.4720 N   0  0  0  0  0  0  0  0  0  0  0  0
    9.9571   -4.0573   16.8866 C   0  0  0  0  0  0  0  0  0  0  0  0
    7.6213   -6.5618   16.0087 C   0  0  0  0  0  0  0  0  0  0  0  0
   10.8583   -2.6527   20.7222 C   0  0  0  0  0  0  0  0  0  0  0  0
   10.6412   -3.5089   21.7936 C   0  0  0  0  0  0  0  0  0  0  0  0
   10.4972   -3.8968   24.1589 C   0  0  0  0  0  0  0  0  0  0  0  0
    5.9260   -8.2736   16.5517 C   0  0  0  0  0  0  0  0  0  0  0  0
    3.8816   -9.1166   17.2493 C   0  0  0  0  0  0  0  0  0  0  0  0
   10.1297   -1.6575   23.2324 C   0  0  0  0  0  0  0  0  0  0  0  0
    9.4684   -1.6929   26.7263 F   0  0  0  0  0  0  0  0  0  0  0  0
    7.7963   -7.7906   17.9837 C   0  0  0  0  0  0  0  0  0  0  0  0
   10.5884   -3.0725   16.7902 O   0  0  0  0  0  0  0  0  0  0  0  0
   10.4323   -5.3494   20.3516 C   0  0  0  0  0  0  0  0  0  0  0  0
    7.1156   -7.5454   16.8218 C   0  0  0  0  0  0  0  0  0  0  0  0
   10.3885   -4.4388   19.2773 C   0  0  0  0  0  0  0  0  0  0  0  0
    4.5160   -9.3822   15.0841 C   0  0  0  0  0  0  0  0  0  0  0  0
  1  3  4  0
  1 24  4  0
  2  6  4  0
  2 15  4  0
  3  5  4  0
  3  6  4  0
  4 21  4  0
  4 29  4  0
  5 15  4  0
  5 28  1  0
  6 16  4  0
  7 18  4  0
  7 26  4  0
  8 18  1  0
  8 19  4  0
  8 22  4  0
  9 12  4  0
  9 19  4  0
 10 12  4  0
 10 22  4  0
 11 20  4  0
 11 21  4  0
 12 23  1  0
 13 20  4  0
 13 29  4  0
 14 17  4  0
 14 28  4  0
 15 25  2  0
 16 27  4  0
 17 18  4  0
 20 27  1  0
 24 27  4  0
 26 28  4  0
M  END
$$$$

 Created by Python create_sdf_string function

 29 33  0  0  0  0  0  0  0  0999 V2000
    8.8270   -7.0288   18.4251 C   0  0  0  0  0  0  0  0  0  0  0  0
    9.1576   -4.6236   15.8860 O   0  0  0  0  0  0  0  0  0  0  0  0
    9.1509   -5.9108   17.7177 C   0  0  0  0  0  0  0  0  0  0  0  0
    3.6373   -9.5349   16.0582 N   0  0  0  0  0  0  0  0  0  0  0  0
    9.9275   -4.8001   18.0438 N   0  0  0  0  0  0  0  0  0  0  0  0
    8.5908   -5.7425   16.4412 C   0  0  0  0  0  0  0  0  0  0  0  0
   10.5993   -4.8981   21.6068 C   0  0  0  0  0  0  0  0  0  0  0  0
   10.4258   -3.0106   23.0998 C   0  0  0  0  0  0  0  0  0  0  0  0
   10.2148   -3.4364   25.4200 C   0  0  0  0  0  0  0  0  0  0  0  0
    9.7853   -1.1840   24.4927 C   0  0  0  0  0  0  0  0  0  0  0  0
    5.0276   -8.5227   17.5352 C   0  0  0  0  0  0  0  0  0  0  0  0
    9.8187   -2.0895   25.5800 C   0  0  0  0  0  0  0  0  0  0  0  0
    5.6473   -8.7216   15.3158 C   0  0  0  0  0  0  0  0  0  0  0  0
   10.7581   -3.1233   19.4720 N   0  0  0  0  0  0  0  0  0  0  0  0
    9.9571   -4.0573   16.8866 C   0  0  0  0  0  0  0  0  0  0  0  0
    7.6213   -6.5618   16.0087 C   0  0  0  0  0  0  0  0  0  0  0  0
   10.8583   -2.6527   20.7222 C   0  0  0  0  0  0  0  0  0  0  0  0
   10.6412   -3.5089   21.7936 C   0  0  0  0  0  0  0  0  0  0  0  0
   10.4972   -3.8968   24.1589 C   0  0  0  0  0  0  0  0  0  0  0  0
    5.9260   -8.2736   16.5517 C   0  0  0  0  0  0  0  0  0  0  0  0
    3.8816   -9.1166   17.2493 C   0  0  0  0  0  0  0  0  0  0  0  0
   10.1297   -1.6575   23.2324 C   0  0  0  0  0  0  0  0  0  0  0  0
    9.4684   -1.6929   26.7263 F   0  0  0  0  0  0  0  0  0  0  0  0
    7.7963   -7.7906   17.9837 C   0  0  0  0  0  0  0  0  0  0  0  0
   10.5884   -3.0725   16.7902 O   0  0  0  0  0  0  0  0  0  0  0  0
   10.4323   -5.3494   20.3516 C   0  0  0  0  0  0  0  0  0  0  0  0
    7.1156   -7.5454   16.8218 C   0  0  0  0  0  0  0  0  0  0  0  0
   10.3885   -4.4388   19.2773 C   0  0  0  0  0  0  0  0  0  0  0  0
    4.5160   -9.3822   15.0841 C   0  0  0  0  0  0  0  0  0  0  0  0
  1  3  4  0
  1 24  4  0
  2  6  4  0
  2 15  4  0
  3  5  4  0
  3  6  4  0
  4 21  4  0
  4 29  4  0
  5 15  4  0
  5 28  1  0
  6 16  4  0
  7 18  4  0
  7 26  4  0
  8 18  1  0
  8 19  4  0
  8 22  4  0
  9 12  4  0
  9 19  4  0
 10 12  4  0
 10 22  4  0
 11 20  4  0
 11 21  4  0
 12 23  1  0
 13 20  4  0
 13 29  4  0
 14 17  4  0
 14 28  4  0
 15 25  2  0
 16 27  4  0
 17 18  4  0
 20 27  1  0
 24 27  4  0
 26 28  4  0
M  END
$$$$

 Created by Python create_sdf_string function

 29 33  0  0  0  0  0  0  0  0999 V2000
    8.8270   -7.0288   18.4251 C   0  0  0  0  0  0  0  0  0  0  0  0
    9.1576   -4.6236   15.8860 O   0  0  0  0  0  0  0  0  0  0  0  0
    9.1509   -5.9108   17.7177 C   0  0  0  0  0  0  0  0  0  0  0  0
    3.6373   -9.5349   16.0582 N   0  0  0  0  0  0  0  0  0  0  0  0
    9.9275   -4.8001   18.0438 N   0  0  0  0  0  0  0  0  0  0  0  0
    8.5908   -5.7425   16.4412 C   0  0  0  0  0  0  0  0  0  0  0  0
   10.5993   -4.8981   21.6068 C   0  0  0  0  0  0  0  0  0  0  0  0
   10.4258   -3.0106   23.0998 C   0  0  0  0  0  0  0  0  0  0  0  0
   10.2148   -3.4364   25.4200 C   0  0  0  0  0  0  0  0  0  0  0  0
    9.7853   -1.1840   24.4927 C   0  0  0  0  0  0  0  0  0  0  0  0
    5.0276   -8.5227   17.5352 C   0  0  0  0  0  0  0  0  0  0  0  0
    9.8187   -2.0895   25.5800 C   0  0  0  0  0  0  0  0  0  0  0  0
    5.6473   -8.7216   15.3158 C   0  0  0  0  0  0  0  0  0  0  0  0
   10.7581   -3.1233   19.4720 N   0  0  0  0  0  0  0  0  0  0  0  0
    9.9571   -4.0573   16.8866 C   0  0  0  0  0  0  0  0  0  0  0  0
    7.6213   -6.5618   16.0087 C   0  0  0  0  0  0  0  0  0  0  0  0
   10.8583   -2.6527   20.7222 C   0  0  0  0  0  0  0  0  0  0  0  0
   10.6412   -3.5089   21.7936 C   0  0  0  0  0  0  0  0  0  0  0  0
   10.4972   -3.8968   24.1589 C   0  0  0  0  0  0  0  0  0  0  0  0
    5.9260   -8.2736   16.5517 C   0  0  0  0  0  0  0  0  0  0  0  0
    3.8816   -9.1166   17.2493 C   0  0  0  0  0  0  0  0  0  0  0  0
   10.1297   -1.6575   23.2324 C   0  0  0  0  0  0  0  0  0  0  0  0
    9.4684   -1.6929   26.7263 F   0  0  0  0  0  0  0  0  0  0  0  0
    7.7963   -7.7906   17.9837 C   0  0  0  0  0  0  0  0  0  0  0  0
   10.5884   -3.0725   16.7902 O   0  0  0  0  0  0  0  0  0  0  0  0
   10.4323   -5.3494   20.3516 C   0  0  0  0  0  0  0  0  0  0  0  0
    7.1156   -7.5454   16.8218 C   0  0  0  0  0  0  0  0  0  0  0  0
   10.3885   -4.4388   19.2773 C   0  0  0  0  0  0  0  0  0  0  0  0
    4.5160   -9.3822   15.0841 C   0  0  0  0  0  0  0  0  0  0  0  0
  1  3  4  0
  1 24  4  0
  2  6  4  0
  2 15  4  0
  3  5  4  0
  3  6  4  0
  4 21  4  0
  4 29  4  0
  5 15  4  0
  5 28  1  0
  6 16  4  0
  7 18  4  0
  7 26  4  0
  8 18  1  0
  8 19  4  0
  8 22  4  0
  9 12  4  0
  9 19  4  0
 10 12  4  0
 10 22  4  0
 11 20  4  0
 11 21  4  0
 12 23  1  0
 13 20  4  0
 13 29  4  0
 14 17  4  0
 14 28  4  0
 15 25  2  0
 16 27  4  0
 17 18  4  0
 20 27  1  0
 24 27  4  0
 26 28  4  0
M  END
$$$$

 Created by Python create_sdf_string function

 29 33  0  0  0  0  0  0  0  0999 V2000
    8.8270   -7.0288   18.4251 C   0  0  0  0  0  0  0  0  0  0  0  0
    9.1576   -4.6236   15.8860 O   0  0  0  0  0  0  0  0  0  0  0  0
    9.1509   -5.9108   17.7177 C   0  0  0  0  0  0  0  0  0  0  0  0
    3.6373   -9.5349   16.0582 N   0  0  0  0  0  0  0  0  0  0  0  0
    9.9275   -4.8001   18.0438 N   0  0  0  0  0  0  0  0  0  0  0  0
    8.5908   -5.7425   16.4412 C   0  0  0  0  0  0  0  0  0  0  0  0
   10.5993   -4.8981   21.6068 C   0  0  0  0  0  0  0  0  0  0  0  0
   10.4258   -3.0106   23.0998 C   0  0  0  0  0  0  0  0  0  0  0  0
   10.2148   -3.4364   25.4200 C   0  0  0  0  0  0  0  0  0  0  0  0
    9.7853   -1.1840   24.4927 C   0  0  0  0  0  0  0  0  0  0  0  0
    5.0276   -8.5227   17.5352 C   0  0  0  0  0  0  0  0  0  0  0  0
    9.8187   -2.0895   25.5800 C   0  0  0  0  0  0  0  0  0  0  0  0
    5.6473   -8.7216   15.3158 C   0  0  0  0  0  0  0  0  0  0  0  0
   10.7581   -3.1233   19.4720 N   0  0  0  0  0  0  0  0  0  0  0  0
    9.9571   -4.0573   16.8866 C   0  0  0  0  0  0  0  0  0  0  0  0
    7.6213   -6.5618   16.0087 C   0  0  0  0  0  0  0  0  0  0  0  0
   10.8583   -2.6527   20.7222 C   0  0  0  0  0  0  0  0  0  0  0  0
   10.6412   -3.5089   21.7936 C   0  0  0  0  0  0  0  0  0  0  0  0
   10.4972   -3.8968   24.1589 C   0  0  0  0  0  0  0  0  0  0  0  0
    5.9260   -8.2736   16.5517 C   0  0  0  0  0  0  0  0  0  0  0  0
    3.8816   -9.1166   17.2493 C   0  0  0  0  0  0  0  0  0  0  0  0
   10.1297   -1.6575   23.2324 C   0  0  0  0  0  0  0  0  0  0  0  0
    9.4684   -1.6929   26.7263 F   0  0  0  0  0  0  0  0  0  0  0  0
    7.7963   -7.7906   17.9837 C   0  0  0  0  0  0  0  0  0  0  0  0
   10.5884   -3.0725   16.7902 O   0  0  0  0  0  0  0  0  0  0  0  0
   10.4323   -5.3494   20.3516 C   0  0  0  0  0  0  0  0  0  0  0  0
    7.1156   -7.5454   16.8218 C   0  0  0  0  0  0  0  0  0  0  0  0
   10.3885   -4.4388   19.2773 C   0  0  0  0  0  0  0  0  0  0  0  0
    4.5160   -9.3822   15.0841 C   0  0  0  0  0  0  0  0  0  0  0  0
  1  3  4  0
  1 24  4  0
  2  6  4  0
  2 15  4  0
  3  5  4  0
  3  6  4  0
  4 21  4  0
  4 29  4  0
  5 15  4  0
  5 28  1  0
  6 16  4  0
  7 18  4  0
  7 26  4  0
  8 18  1  0
  8 19  4  0
  8 22  4  0
  9 12  4  0
  9 19  4  0
 10 12  4  0
 10 22  4  0
 11 20  4  0
 11 21  4  0
 12 23  1  0
 13 20  4  0
 13 29  4  0
 14 17  4  0
 14 28  4  0
 15 25  2  0
 16 27  4  0
 17 18  4  0
 20 27  1  0
 24 27  4  0
 26 28  4  0
M  END
$$$$

 Created by Python create_sdf_string function

 29 33  0  0  0  0  0  0  0  0999 V2000
    8.8270   -7.0288   18.4251 C   0  0  0  0  0  0  0  0  0  0  0  0
    9.1576   -4.6236   15.8860 O   0  0  0  0  0  0  0  0  0  0  0  0
    9.1509   -5.9108   17.7177 C   0  0  0  0  0  0  0  0  0  0  0  0
    3.6373   -9.5349   16.0582 N   0  0  0  0  0  0  0  0  0  0  0  0
    9.9275   -4.8001   18.0438 N   0  0  0  0  0  0  0  0  0  0  0  0
    8.5908   -5.7425   16.4412 C   0  0  0  0  0  0  0  0  0  0  0  0
   10.5993   -4.8981   21.6068 C   0  0  0  0  0  0  0  0  0  0  0  0
   10.4258   -3.0106   23.0998 C   0  0  0  0  0  0  0  0  0  0  0  0
   10.2148   -3.4364   25.4200 C   0  0  0  0  0  0  0  0  0  0  0  0
    9.7853   -1.1840   24.4927 C   0  0  0  0  0  0  0  0  0  0  0  0
    5.0276   -8.5227   17.5352 C   0  0  0  0  0  0  0  0  0  0  0  0
    9.8187   -2.0895   25.5800 C   0  0  0  0  0  0  0  0  0  0  0  0
    5.6473   -8.7216   15.3158 C   0  0  0  0  0  0  0  0  0  0  0  0
   10.7581   -3.1233   19.4720 N   0  0  0  0  0  0  0  0  0  0  0  0
    9.9571   -4.0573   16.8866 C   0  0  0  0  0  0  0  0  0  0  0  0
    7.6213   -6.5618   16.0087 C   0  0  0  0  0  0  0  0  0  0  0  0
   10.8583   -2.6527   20.7222 C   0  0  0  0  0  0  0  0  0  0  0  0
   10.6412   -3.5089   21.7936 C   0  0  0  0  0  0  0  0  0  0  0  0
   10.4972   -3.8968   24.1589 C   0  0  0  0  0  0  0  0  0  0  0  0
    5.9260   -8.2736   16.5517 C   0  0  0  0  0  0  0  0  0  0  0  0
    3.8816   -9.1166   17.2493 C   0  0  0  0  0  0  0  0  0  0  0  0
   10.1297   -1.6575   23.2324 C   0  0  0  0  0  0  0  0  0  0  0  0
    9.4684   -1.6929   26.7263 F   0  0  0  0  0  0  0  0  0  0  0  0
    7.7963   -7.7906   17.9837 C   0  0  0  0  0  0  0  0  0  0  0  0
   10.5884   -3.0725   16.7902 O   0  0  0  0  0  0  0  0  0  0  0  0
   10.4323   -5.3494   20.3516 C   0  0  0  0  0  0  0  0  0  0  0  0
    7.1156   -7.5454   16.8218 C   0  0  0  0  0  0  0  0  0  0  0  0
   10.3885   -4.4388   19.2773 C   0  0  0  0  0  0  0  0  0  0  0  0
    4.5160   -9.3822   15.0841 C   0  0  0  0  0  0  0  0  0  0  0  0
  1  3  4  0
  1 24  4  0
  2  6  4  0
  2 15  4  0
  3  5  4  0
  3  6  4  0
  4 21  4  0
  4 29  4  0
  5 15  4  0
  5 28  1  0
  6 16  4  0
  7 18  4  0
  7 26  4  0
  8 18  1  0
  8 19  4  0
  8 22  4  0
  9 12  4  0
  9 19  4  0
 10 12  4  0
 10 22  4  0
 11 20  4  0
 11 21  4  0
 12 23  1  0
 13 20  4  0
 13 29  4  0
 14 17  4  0
 14 28  4  0
 15 25  2  0
 16 27  4  0
 17 18  4  0
 20 27  1  0
 24 27  4  0
 26 28  4  0
M  END
$$$$

 Created by Python create_sdf_string function

 29 33  0  0  0  0  0  0  0  0999 V2000
    8.8270   -7.0288   18.4251 C   0  0  0  0  0  0  0  0  0  0  0  0
    9.1576   -4.6236   15.8860 O   0  0  0  0  0  0  0  0  0  0  0  0
    9.1509   -5.9108   17.7177 C   0  0  0  0  0  0  0  0  0  0  0  0
    3.6373   -9.5349   16.0582 N   0  0  0  0  0  0  0  0  0  0  0  0
    9.9275   -4.8001   18.0438 N   0  0  0  0  0  0  0  0  0  0  0  0
    8.5908   -5.7425   16.4412 C   0  0  0  0  0  0  0  0  0  0  0  0
   10.5993   -4.8981   21.6068 C   0  0  0  0  0  0  0  0  0  0  0  0
   10.4258   -3.0106   23.0998 C   0  0  0  0  0  0  0  0  0  0  0  0
   10.2148   -3.4364   25.4200 C   0  0  0  0  0  0  0  0  0  0  0  0
    9.7853   -1.1840   24.4927 C   0  0  0  0  0  0  0  0  0  0  0  0
    5.0276   -8.5227   17.5352 C   0  0  0  0  0  0  0  0  0  0  0  0
    9.8187   -2.0895   25.5800 C   0  0  0  0  0  0  0  0  0  0  0  0
    5.6473   -8.7216   15.3158 C   0  0  0  0  0  0  0  0  0  0  0  0
   10.7581   -3.1233   19.4720 N   0  0  0  0  0  0  0  0  0  0  0  0
    9.9571   -4.0573   16.8866 C   0  0  0  0  0  0  0  0  0  0  0  0
    7.6213   -6.5618   16.0087 C   0  0  0  0  0  0  0  0  0  0  0  0
   10.8583   -2.6527   20.7222 C   0  0  0  0  0  0  0  0  0  0  0  0
   10.6412   -3.5089   21.7936 C   0  0  0  0  0  0  0  0  0  0  0  0
   10.4972   -3.8968   24.1589 C   0  0  0  0  0  0  0  0  0  0  0  0
    5.9260   -8.2736   16.5517 C   0  0  0  0  0  0  0  0  0  0  0  0
    3.8816   -9.1166   17.2493 C   0  0  0  0  0  0  0  0  0  0  0  0
   10.1297   -1.6575   23.2324 C   0  0  0  0  0  0  0  0  0  0  0  0
    9.4684   -1.6929   26.7263 F   0  0  0  0  0  0  0  0  0  0  0  0
    7.7963   -7.7906   17.9837 C   0  0  0  0  0  0  0  0  0  0  0  0
   10.5884   -3.0725   16.7902 O   0  0  0  0  0  0  0  0  0  0  0  0
   10.4323   -5.3494   20.3516 C   0  0  0  0  0  0  0  0  0  0  0  0
    7.1156   -7.5454   16.8218 C   0  0  0  0  0  0  0  0  0  0  0  0
   10.3885   -4.4388   19.2773 C   0  0  0  0  0  0  0  0  0  0  0  0
    4.5160   -9.3822   15.0841 C   0  0  0  0  0  0  0  0  0  0  0  0
  1  3  4  0
  1 24  4  0
  2  6  4  0
  2 15  4  0
  3  5  4  0
  3  6  4  0
  4 21  4  0
  4 29  4  0
  5 15  4  0
  5 28  1  0
  6 16  4  0
  7 18  4  0
  7 26  4  0
  8 18  1  0
  8 19  4  0
  8 22  4  0
  9 12  4  0
  9 19  4  0
 10 12  4  0
 10 22  4  0
 11 20  4  0
 11 21  4  0
 12 23  1  0
 13 20  4  0
 13 29  4  0
 14 17  4  0
 14 28  4  0
 15 25  2  0
 16 27  4  0
 17 18  4  0
 20 27  1  0
 24 27  4  0
 26 28  4  0
M  END
$$$$

 Created by Python create_sdf_string function

 29 33  0  0  0  0  0  0  0  0999 V2000
    8.8270   -7.0288   18.4251 C   0  0  0  0  0  0  0  0  0  0  0  0
    9.1576   -4.6236   15.8860 O   0  0  0  0  0  0  0  0  0  0  0  0
    9.1509   -5.9108   17.7177 C   0  0  0  0  0  0  0  0  0  0  0  0
    3.6373   -9.5349   16.0582 N   0  0  0  0  0  0  0  0  0  0  0  0
    9.9275   -4.8001   18.0438 N   0  0  0  0  0  0  0  0  0  0  0  0
    8.5908   -5.7425   16.4412 C   0  0  0  0  0  0  0  0  0  0  0  0
   10.5993   -4.8981   21.6068 C   0  0  0  0  0  0  0  0  0  0  0  0
   10.4258   -3.0106   23.0998 C   0  0  0  0  0  0  0  0  0  0  0  0
   10.2148   -3.4364   25.4200 C   0  0  0  0  0  0  0  0  0  0  0  0
    9.7853   -1.1840   24.4927 C   0  0  0  0  0  0  0  0  0  0  0  0
    5.0276   -8.5227   17.5352 C   0  0  0  0  0  0  0  0  0  0  0  0
    9.8187   -2.0895   25.5800 C   0  0  0  0  0  0  0  0  0  0  0  0
    5.6473   -8.7216   15.3158 C   0  0  0  0  0  0  0  0  0  0  0  0
   10.7581   -3.1233   19.4720 N   0  0  0  0  0  0  0  0  0  0  0  0
    9.9571   -4.0573   16.8866 C   0  0  0  0  0  0  0  0  0  0  0  0
    7.6213   -6.5618   16.0087 C   0  0  0  0  0  0  0  0  0  0  0  0
   10.8583   -2.6527   20.7222 C   0  0  0  0  0  0  0  0  0  0  0  0
   10.6412   -3.5089   21.7936 C   0  0  0  0  0  0  0  0  0  0  0  0
   10.4972   -3.8968   24.1589 C   0  0  0  0  0  0  0  0  0  0  0  0
    5.9260   -8.2736   16.5517 C   0  0  0  0  0  0  0  0  0  0  0  0
    3.8816   -9.1166   17.2493 C   0  0  0  0  0  0  0  0  0  0  0  0
   10.1297   -1.6575   23.2324 C   0  0  0  0  0  0  0  0  0  0  0  0
    9.4684   -1.6929   26.7263 F   0  0  0  0  0  0  0  0  0  0  0  0
    7.7963   -7.7906   17.9837 C   0  0  0  0  0  0  0  0  0  0  0  0
   10.5884   -3.0725   16.7902 O   0  0  0  0  0  0  0  0  0  0  0  0
   10.4323   -5.3494   20.3516 C   0  0  0  0  0  0  0  0  0  0  0  0
    7.1156   -7.5454   16.8218 C   0  0  0  0  0  0  0  0  0  0  0  0
   10.3885   -4.4388   19.2773 C   0  0  0  0  0  0  0  0  0  0  0  0
    4.5160   -9.3822   15.0841 C   0  0  0  0  0  0  0  0  0  0  0  0
  1  3  4  0
  1 24  4  0
  2  6  4  0
  2 15  4  0
  3  5  4  0
  3  6  4  0
  4 21  4  0
  4 29  4  0
  5 15  4  0
  5 28  1  0
  6 16  4  0
  7 18  4  0
  7 26  4  0
  8 18  1  0
  8 19  4  0
  8 22  4  0
  9 12  4  0
  9 19  4  0
 10 12  4  0
 10 22  4  0
 11 20  4  0
 11 21  4  0
 12 23  1  0
 13 20  4  0
 13 29  4  0
 14 17  4  0
 14 28  4  0
 15 25  2  0
 16 27  4  0
 17 18  4  0
 20 27  1  0
 24 27  4  0
 26 28  4  0
M  END
$$$$

 Created by Python create_sdf_string function

 29 33  0  0  0  0  0  0  0  0999 V2000
    8.8270   -7.0288   18.4251 C   0  0  0  0  0  0  0  0  0  0  0  0
    9.1576   -4.6236   15.8860 O   0  0  0  0  0  0  0  0  0  0  0  0
    9.1509   -5.9108   17.7177 C   0  0  0  0  0  0  0  0  0  0  0  0
    3.6373   -9.5349   16.0582 N   0  0  0  0  0  0  0  0  0  0  0  0
    9.9275   -4.8001   18.0438 N   0  0  0  0  0  0  0  0  0  0  0  0
    8.5908   -5.7425   16.4412 C   0  0  0  0  0  0  0  0  0  0  0  0
   10.5993   -4.8981   21.6068 C   0  0  0  0  0  0  0  0  0  0  0  0
   10.4258   -3.0106   23.0998 C   0  0  0  0  0  0  0  0  0  0  0  0
   10.2148   -3.4364   25.4200 C   0  0  0  0  0  0  0  0  0  0  0  0
    9.7853   -1.1840   24.4927 C   0  0  0  0  0  0  0  0  0  0  0  0
    5.0276   -8.5227   17.5352 C   0  0  0  0  0  0  0  0  0  0  0  0
    9.8187   -2.0895   25.5800 C   0  0  0  0  0  0  0  0  0  0  0  0
    5.6473   -8.7216   15.3158 C   0  0  0  0  0  0  0  0  0  0  0  0
   10.7581   -3.1233   19.4720 N   0  0  0  0  0  0  0  0  0  0  0  0
    9.9571   -4.0573   16.8866 C   0  0  0  0  0  0  0  0  0  0  0  0
    7.6213   -6.5618   16.0087 C   0  0  0  0  0  0  0  0  0  0  0  0
   10.8583   -2.6527   20.7222 C   0  0  0  0  0  0  0  0  0  0  0  0
   10.6412   -3.5089   21.7936 C   0  0  0  0  0  0  0  0  0  0  0  0
   10.4972   -3.8968   24.1589 C   0  0  0  0  0  0  0  0  0  0  0  0
    5.9260   -8.2736   16.5517 C   0  0  0  0  0  0  0  0  0  0  0  0
    3.8816   -9.1166   17.2493 C   0  0  0  0  0  0  0  0  0  0  0  0
   10.1297   -1.6575   23.2324 C   0  0  0  0  0  0  0  0  0  0  0  0
    9.4684   -1.6929   26.7263 F   0  0  0  0  0  0  0  0  0  0  0  0
    7.7963   -7.7906   17.9837 C   0  0  0  0  0  0  0  0  0  0  0  0
   10.5884   -3.0725   16.7902 O   0  0  0  0  0  0  0  0  0  0  0  0
   10.4323   -5.3494   20.3516 C   0  0  0  0  0  0  0  0  0  0  0  0
    7.1156   -7.5454   16.8218 C   0  0  0  0  0  0  0  0  0  0  0  0
   10.3885   -4.4388   19.2773 C   0  0  0  0  0  0  0  0  0  0  0  0
    4.5160   -9.3822   15.0841 C   0  0  0  0  0  0  0  0  0  0  0  0
  1  3  4  0
  1 24  4  0
  2  6  4  0
  2 15  4  0
  3  5  4  0
  3  6  4  0
  4 21  4  0
  4 29  4  0
  5 15  4  0
  5 28  1  0
  6 16  4  0
  7 18  4  0
  7 26  4  0
  8 18  1  0
  8 19  4  0
  8 22  4  0
  9 12  4  0
  9 19  4  0
 10 12  4  0
 10 22  4  0
 11 20  4  0
 11 21  4  0
 12 23  1  0
 13 20  4  0
 13 29  4  0
 14 17  4  0
 14 28  4  0
 15 25  2  0
 16 27  4  0
 17 18  4  0
 20 27  1  0
 24 27  4  0
 26 28  4  0
M  END
$$$$

 Created by Python create_sdf_string function

 29 33  0  0  0  0  0  0  0  0999 V2000
    8.8270   -7.0288   18.4251 C   0  0  0  0  0  0  0  0  0  0  0  0
    9.1576   -4.6236   15.8860 O   0  0  0  0  0  0  0  0  0  0  0  0
    9.1509   -5.9108   17.7177 C   0  0  0  0  0  0  0  0  0  0  0  0
    3.6373   -9.5349   16.0582 N   0  0  0  0  0  0  0  0  0  0  0  0
    9.9275   -4.8001   18.0438 N   0  0  0  0  0  0  0  0  0  0  0  0
    8.5908   -5.7425   16.4412 C   0  0  0  0  0  0  0  0  0  0  0  0
   10.5993   -4.8981   21.6068 C   0  0  0  0  0  0  0  0  0  0  0  0
   10.4258   -3.0106   23.0998 C   0  0  0  0  0  0  0  0  0  0  0  0
   10.2148   -3.4364   25.4200 C   0  0  0  0  0  0  0  0  0  0  0  0
    9.7853   -1.1840   24.4927 C   0  0  0  0  0  0  0  0  0  0  0  0
    5.0276   -8.5227   17.5352 C   0  0  0  0  0  0  0  0  0  0  0  0
    9.8187   -2.0895   25.5800 C   0  0  0  0  0  0  0  0  0  0  0  0
    5.6473   -8.7216   15.3158 C   0  0  0  0  0  0  0  0  0  0  0  0
   10.7581   -3.1233   19.4720 N   0  0  0  0  0  0  0  0  0  0  0  0
    9.9571   -4.0573   16.8866 C   0  0  0  0  0  0  0  0  0  0  0  0
    7.6213   -6.5618   16.0087 C   0  0  0  0  0  0  0  0  0  0  0  0
   10.8583   -2.6527   20.7222 C   0  0  0  0  0  0  0  0  0  0  0  0
   10.6412   -3.5089   21.7936 C   0  0  0  0  0  0  0  0  0  0  0  0
   10.4972   -3.8968   24.1589 C   0  0  0  0  0  0  0  0  0  0  0  0
    5.9260   -8.2736   16.5517 C   0  0  0  0  0  0  0  0  0  0  0  0
    3.8816   -9.1166   17.2493 C   0  0  0  0  0  0  0  0  0  0  0  0
   10.1297   -1.6575   23.2324 C   0  0  0  0  0  0  0  0  0  0  0  0
    9.4684   -1.6929   26.7263 F   0  0  0  0  0  0  0  0  0  0  0  0
    7.7963   -7.7906   17.9837 C   0  0  0  0  0  0  0  0  0  0  0  0
   10.5884   -3.0725   16.7902 O   0  0  0  0  0  0  0  0  0  0  0  0
   10.4323   -5.3494   20.3516 C   0  0  0  0  0  0  0  0  0  0  0  0
    7.1156   -7.5454   16.8218 C   0  0  0  0  0  0  0  0  0  0  0  0
   10.3885   -4.4388   19.2773 C   0  0  0  0  0  0  0  0  0  0  0  0
    4.5160   -9.3822   15.0841 C   0  0  0  0  0  0  0  0  0  0  0  0
  1  3  4  0
  1 24  4  0
  2  6  4  0
  2 15  4  0
  3  5  4  0
  3  6  4  0
  4 21  4  0
  4 29  4  0
  5 15  4  0
  5 28  1  0
  6 16  4  0
  7 18  4  0
  7 26  4  0
  8 18  1  0
  8 19  4  0
  8 22  4  0
  9 12  4  0
  9 19  4  0
 10 12  4  0
 10 22  4  0
 11 20  4  0
 11 21  4  0
 12 23  1  0
 13 20  4  0
 13 29  4  0
 14 17  4  0
 14 28  4  0
 15 25  2  0
 16 27  4  0
 17 18  4  0
 20 27  1  0
 24 27  4  0
 26 28  4  0
M  END
$$$$

 Created by Python create_sdf_string function

 29 33  0  0  0  0  0  0  0  0999 V2000
    8.8270   -7.0288   18.4251 C   0  0  0  0  0  0  0  0  0  0  0  0
    9.1576   -4.6236   15.8860 O   0  0  0  0  0  0  0  0  0  0  0  0
    9.1509   -5.9108   17.7177 C   0  0  0  0  0  0  0  0  0  0  0  0
    3.6373   -9.5349   16.0582 N   0  0  0  0  0  0  0  0  0  0  0  0
    9.9275   -4.8001   18.0438 N   0  0  0  0  0  0  0  0  0  0  0  0
    8.5908   -5.7425   16.4412 C   0  0  0  0  0  0  0  0  0  0  0  0
   10.5993   -4.8981   21.6068 C   0  0  0  0  0  0  0  0  0  0  0  0
   10.4258   -3.0106   23.0998 C   0  0  0  0  0  0  0  0  0  0  0  0
   10.2148   -3.4364   25.4200 C   0  0  0  0  0  0  0  0  0  0  0  0
    9.7853   -1.1840   24.4927 C   0  0  0  0  0  0  0  0  0  0  0  0
    5.0276   -8.5227   17.5352 C   0  0  0  0  0  0  0  0  0  0  0  0
    9.8187   -2.0895   25.5800 C   0  0  0  0  0  0  0  0  0  0  0  0
    5.6473   -8.7216   15.3158 C   0  0  0  0  0  0  0  0  0  0  0  0
   10.7581   -3.1233   19.4720 N   0  0  0  0  0  0  0  0  0  0  0  0
    9.9571   -4.0573   16.8866 C   0  0  0  0  0  0  0  0  0  0  0  0
    7.6213   -6.5618   16.0087 C   0  0  0  0  0  0  0  0  0  0  0  0
   10.8583   -2.6527   20.7222 C   0  0  0  0  0  0  0  0  0  0  0  0
   10.6412   -3.5089   21.7936 C   0  0  0  0  0  0  0  0  0  0  0  0
   10.4972   -3.8968   24.1589 C   0  0  0  0  0  0  0  0  0  0  0  0
    5.9260   -8.2736   16.5517 C   0  0  0  0  0  0  0  0  0  0  0  0
    3.8816   -9.1166   17.2493 C   0  0  0  0  0  0  0  0  0  0  0  0
   10.1297   -1.6575   23.2324 C   0  0  0  0  0  0  0  0  0  0  0  0
    9.4684   -1.6929   26.7263 F   0  0  0  0  0  0  0  0  0  0  0  0
    7.7963   -7.7906   17.9837 C   0  0  0  0  0  0  0  0  0  0  0  0
   10.5884   -3.0725   16.7902 O   0  0  0  0  0  0  0  0  0  0  0  0
   10.4323   -5.3494   20.3516 C   0  0  0  0  0  0  0  0  0  0  0  0
    7.1156   -7.5454   16.8218 C   0  0  0  0  0  0  0  0  0  0  0  0
   10.3885   -4.4388   19.2773 C   0  0  0  0  0  0  0  0  0  0  0  0
    4.5160   -9.3822   15.0841 C   0  0  0  0  0  0  0  0  0  0  0  0
  1  3  4  0
  1 24  4  0
  2  6  4  0
  2 15  4  0
  3  5  4  0
  3  6  4  0
  4 21  4  0
  4 29  4  0
  5 15  4  0
  5 28  1  0
  6 16  4  0
  7 18  4  0
  7 26  4  0
  8 18  1  0
  8 19  4  0
  8 22  4  0
  9 12  4  0
  9 19  4  0
 10 12  4  0
 10 22  4  0
 11 20  4  0
 11 21  4  0
 12 23  1  0
 13 20  4  0
 13 29  4  0
 14 17  4  0
 14 28  4  0
 15 25  2  0
 16 27  4  0
 17 18  4  0
 20 27  1  0
 24 27  4  0
 26 28  4  0
M  END
$$$$

 Created by Python create_sdf_string function

 29 33  0  0  0  0  0  0  0  0999 V2000
    8.8270   -7.0288   18.4251 C   0  0  0  0  0  0  0  0  0  0  0  0
    9.1576   -4.6236   15.8860 O   0  0  0  0  0  0  0  0  0  0  0  0
    9.1509   -5.9108   17.7177 C   0  0  0  0  0  0  0  0  0  0  0  0
    3.6373   -9.5349   16.0582 N   0  0  0  0  0  0  0  0  0  0  0  0
    9.9275   -4.8001   18.0438 N   0  0  0  0  0  0  0  0  0  0  0  0
    8.5908   -5.7425   16.4412 C   0  0  0  0  0  0  0  0  0  0  0  0
   10.5993   -4.8981   21.6068 C   0  0  0  0  0  0  0  0  0  0  0  0
   10.4258   -3.0106   23.0998 C   0  0  0  0  0  0  0  0  0  0  0  0
   10.2148   -3.4364   25.4200 C   0  0  0  0  0  0  0  0  0  0  0  0
    9.7853   -1.1840   24.4927 C   0  0  0  0  0  0  0  0  0  0  0  0
    5.0276   -8.5227   17.5352 C   0  0  0  0  0  0  0  0  0  0  0  0
    9.8187   -2.0895   25.5800 C   0  0  0  0  0  0  0  0  0  0  0  0
    5.6473   -8.7216   15.3158 C   0  0  0  0  0  0  0  0  0  0  0  0
   10.7581   -3.1233   19.4720 N   0  0  0  0  0  0  0  0  0  0  0  0
    9.9571   -4.0573   16.8866 C   0  0  0  0  0  0  0  0  0  0  0  0
    7.6213   -6.5618   16.0087 C   0  0  0  0  0  0  0  0  0  0  0  0
   10.8583   -2.6527   20.7222 C   0  0  0  0  0  0  0  0  0  0  0  0
   10.6412   -3.5089   21.7936 C   0  0  0  0  0  0  0  0  0  0  0  0
   10.4972   -3.8968   24.1589 C   0  0  0  0  0  0  0  0  0  0  0  0
    5.9260   -8.2736   16.5517 C   0  0  0  0  0  0  0  0  0  0  0  0
    3.8816   -9.1166   17.2493 C   0  0  0  0  0  0  0  0  0  0  0  0
   10.1297   -1.6575   23.2324 C   0  0  0  0  0  0  0  0  0  0  0  0
    9.4684   -1.6929   26.7263 F   0  0  0  0  0  0  0  0  0  0  0  0
    7.7963   -7.7906   17.9837 C   0  0  0  0  0  0  0  0  0  0  0  0
   10.5884   -3.0725   16.7902 O   0  0  0  0  0  0  0  0  0  0  0  0
   10.4323   -5.3494   20.3516 C   0  0  0  0  0  0  0  0  0  0  0  0
    7.1156   -7.5454   16.8218 C   0  0  0  0  0  0  0  0  0  0  0  0
   10.3885   -4.4388   19.2773 C   0  0  0  0  0  0  0  0  0  0  0  0
    4.5160   -9.3822   15.0841 C   0  0  0  0  0  0  0  0  0  0  0  0
  1  3  4  0
  1 24  4  0
  2  6  4  0
  2 15  4  0
  3  5  4  0
  3  6  4  0
  4 21  4  0
  4 29  4  0
  5 15  4  0
  5 28  1  0
  6 16  4  0
  7 18  4  0
  7 26  4  0
  8 18  1  0
  8 19  4  0
  8 22  4  0
  9 12  4  0
  9 19  4  0
 10 12  4  0
 10 22  4  0
 11 20  4  0
 11 21  4  0
 12 23  1  0
 13 20  4  0
 13 29  4  0
 14 17  4  0
 14 28  4  0
 15 25  2  0
 16 27  4  0
 17 18  4  0
 20 27  1  0
 24 27  4  0
 26 28  4  0
M  END
$$$$

 Created by Python create_sdf_string function

 29 33  0  0  0  0  0  0  0  0999 V2000
    8.8270   -7.0288   18.4251 C   0  0  0  0  0  0  0  0  0  0  0  0
    9.1576   -4.6236   15.8860 O   0  0  0  0  0  0  0  0  0  0  0  0
    9.1509   -5.9108   17.7177 C   0  0  0  0  0  0  0  0  0  0  0  0
    3.6373   -9.5349   16.0582 N   0  0  0  0  0  0  0  0  0  0  0  0
    9.9275   -4.8001   18.0438 N   0  0  0  0  0  0  0  0  0  0  0  0
    8.5908   -5.7425   16.4412 C   0  0  0  0  0  0  0  0  0  0  0  0
   10.5993   -4.8981   21.6068 C   0  0  0  0  0  0  0  0  0  0  0  0
   10.4258   -3.0106   23.0998 C   0  0  0  0  0  0  0  0  0  0  0  0
   10.2148   -3.4364   25.4200 C   0  0  0  0  0  0  0  0  0  0  0  0
    9.7853   -1.1840   24.4927 C   0  0  0  0  0  0  0  0  0  0  0  0
    5.0276   -8.5227   17.5352 C   0  0  0  0  0  0  0  0  0  0  0  0
    9.8187   -2.0895   25.5800 C   0  0  0  0  0  0  0  0  0  0  0  0
    5.6473   -8.7216   15.3158 C   0  0  0  0  0  0  0  0  0  0  0  0
   10.7581   -3.1233   19.4720 N   0  0  0  0  0  0  0  0  0  0  0  0
    9.9571   -4.0573   16.8866 C   0  0  0  0  0  0  0  0  0  0  0  0
    7.6213   -6.5618   16.0087 C   0  0  0  0  0  0  0  0  0  0  0  0
   10.8583   -2.6527   20.7222 C   0  0  0  0  0  0  0  0  0  0  0  0
   10.6412   -3.5089   21.7936 C   0  0  0  0  0  0  0  0  0  0  0  0
   10.4972   -3.8968   24.1589 C   0  0  0  0  0  0  0  0  0  0  0  0
    5.9260   -8.2736   16.5517 C   0  0  0  0  0  0  0  0  0  0  0  0
    3.8816   -9.1166   17.2493 C   0  0  0  0  0  0  0  0  0  0  0  0
   10.1297   -1.6575   23.2324 C   0  0  0  0  0  0  0  0  0  0  0  0
    9.4684   -1.6929   26.7263 F   0  0  0  0  0  0  0  0  0  0  0  0
    7.7963   -7.7906   17.9837 C   0  0  0  0  0  0  0  0  0  0  0  0
   10.5884   -3.0725   16.7902 O   0  0  0  0  0  0  0  0  0  0  0  0
   10.4323   -5.3494   20.3516 C   0  0  0  0  0  0  0  0  0  0  0  0
    7.1156   -7.5454   16.8218 C   0  0  0  0  0  0  0  0  0  0  0  0
   10.3885   -4.4388   19.2773 C   0  0  0  0  0  0  0  0  0  0  0  0
    4.5160   -9.3822   15.0841 C   0  0  0  0  0  0  0  0  0  0  0  0
  1  3  4  0
  1 24  4  0
  2  6  4  0
  2 15  4  0
  3  5  4  0
  3  6  4  0
  4 21  4  0
  4 29  4  0
  5 15  4  0
  5 28  1  0
  6 16  4  0
  7 18  4  0
  7 26  4  0
  8 18  1  0
  8 19  4  0
  8 22  4  0
  9 12  4  0
  9 19  4  0
 10 12  4  0
 10 22  4  0
 11 20  4  0
 11 21  4  0
 12 23  1  0
 13 20  4  0
 13 29  4  0
 14 17  4  0
 14 28  4  0
 15 25  2  0
 16 27  4  0
 17 18  4  0
 20 27  1  0
 24 27  4  0
 26 28  4  0
M  END
$$$$

 Created by Python create_sdf_string function

 29 33  0  0  0  0  0  0  0  0999 V2000
    8.8270   -7.0288   18.4251 C   0  0  0  0  0  0  0  0  0  0  0  0
    9.1576   -4.6236   15.8860 O   0  0  0  0  0  0  0  0  0  0  0  0
    9.1509   -5.9108   17.7177 C   0  0  0  0  0  0  0  0  0  0  0  0
    3.6373   -9.5349   16.0582 N   0  0  0  0  0  0  0  0  0  0  0  0
    9.9275   -4.8001   18.0438 N   0  0  0  0  0  0  0  0  0  0  0  0
    8.5908   -5.7425   16.4412 C   0  0  0  0  0  0  0  0  0  0  0  0
   10.5993   -4.8981   21.6068 C   0  0  0  0  0  0  0  0  0  0  0  0
   10.4258   -3.0106   23.0998 C   0  0  0  0  0  0  0  0  0  0  0  0
   10.2148   -3.4364   25.4200 C   0  0  0  0  0  0  0  0  0  0  0  0
    9.7853   -1.1840   24.4927 C   0  0  0  0  0  0  0  0  0  0  0  0
    5.0276   -8.5227   17.5352 C   0  0  0  0  0  0  0  0  0  0  0  0
    9.8187   -2.0895   25.5800 C   0  0  0  0  0  0  0  0  0  0  0  0
    5.6473   -8.7216   15.3158 C   0  0  0  0  0  0  0  0  0  0  0  0
   10.7581   -3.1233   19.4720 N   0  0  0  0  0  0  0  0  0  0  0  0
    9.9571   -4.0573   16.8866 C   0  0  0  0  0  0  0  0  0  0  0  0
    7.6213   -6.5618   16.0087 C   0  0  0  0  0  0  0  0  0  0  0  0
   10.8583   -2.6527   20.7222 C   0  0  0  0  0  0  0  0  0  0  0  0
   10.6412   -3.5089   21.7936 C   0  0  0  0  0  0  0  0  0  0  0  0
   10.4972   -3.8968   24.1589 C   0  0  0  0  0  0  0  0  0  0  0  0
    5.9260   -8.2736   16.5517 C   0  0  0  0  0  0  0  0  0  0  0  0
    3.8816   -9.1166   17.2493 C   0  0  0  0  0  0  0  0  0  0  0  0
   10.1297   -1.6575   23.2324 C   0  0  0  0  0  0  0  0  0  0  0  0
    9.4684   -1.6929   26.7263 F   0  0  0  0  0  0  0  0  0  0  0  0
    7.7963   -7.7906   17.9837 C   0  0  0  0  0  0  0  0  0  0  0  0
   10.5884   -3.0725   16.7902 O   0  0  0  0  0  0  0  0  0  0  0  0
   10.4323   -5.3494   20.3516 C   0  0  0  0  0  0  0  0  0  0  0  0
    7.1156   -7.5454   16.8218 C   0  0  0  0  0  0  0  0  0  0  0  0
   10.3885   -4.4388   19.2773 C   0  0  0  0  0  0  0  0  0  0  0  0
    4.5160   -9.3822   15.0841 C   0  0  0  0  0  0  0  0  0  0  0  0
  1  3  4  0
  1 24  4  0
  2  6  4  0
  2 15  4  0
  3  5  4  0
  3  6  4  0
  4 21  4  0
  4 29  4  0
  5 15  4  0
  5 28  1  0
  6 16  4  0
  7 18  4  0
  7 26  4  0
  8 18  1  0
  8 19  4  0
  8 22  4  0
  9 12  4  0
  9 19  4  0
 10 12  4  0
 10 22  4  0
 11 20  4  0
 11 21  4  0
 12 23  1  0
 13 20  4  0
 13 29  4  0
 14 17  4  0
 14 28  4  0
 15 25  2  0
 16 27  4  0
 17 18  4  0
 20 27  1  0
 24 27  4  0
 26 28  4  0
M  END
$$$$

 Created by Python create_sdf_string function

 29 33  0  0  0  0  0  0  0  0999 V2000
    8.8270   -7.0288   18.4251 C   0  0  0  0  0  0  0  0  0  0  0  0
    9.1576   -4.6236   15.8860 O   0  0  0  0  0  0  0  0  0  0  0  0
    9.1509   -5.9108   17.7177 C   0  0  0  0  0  0  0  0  0  0  0  0
    3.6373   -9.5349   16.0582 N   0  0  0  0  0  0  0  0  0  0  0  0
    9.9275   -4.8001   18.0438 N   0  0  0  0  0  0  0  0  0  0  0  0
    8.5908   -5.7425   16.4412 C   0  0  0  0  0  0  0  0  0  0  0  0
   10.5993   -4.8981   21.6068 C   0  0  0  0  0  0  0  0  0  0  0  0
   10.4258   -3.0106   23.0998 C   0  0  0  0  0  0  0  0  0  0  0  0
   10.2148   -3.4364   25.4200 C   0  0  0  0  0  0  0  0  0  0  0  0
    9.7853   -1.1840   24.4927 C   0  0  0  0  0  0  0  0  0  0  0  0
    5.0276   -8.5227   17.5352 C   0  0  0  0  0  0  0  0  0  0  0  0
    9.8187   -2.0895   25.5800 C   0  0  0  0  0  0  0  0  0  0  0  0
    5.6473   -8.7216   15.3158 C   0  0  0  0  0  0  0  0  0  0  0  0
   10.7581   -3.1233   19.4720 N   0  0  0  0  0  0  0  0  0  0  0  0
    9.9571   -4.0573   16.8866 C   0  0  0  0  0  0  0  0  0  0  0  0
    7.6213   -6.5618   16.0087 C   0  0  0  0  0  0  0  0  0  0  0  0
   10.8583   -2.6527   20.7222 C   0  0  0  0  0  0  0  0  0  0  0  0
   10.6412   -3.5089   21.7936 C   0  0  0  0  0  0  0  0  0  0  0  0
   10.4972   -3.8968   24.1589 C   0  0  0  0  0  0  0  0  0  0  0  0
    5.9260   -8.2736   16.5517 C   0  0  0  0  0  0  0  0  0  0  0  0
    3.8816   -9.1166   17.2493 C   0  0  0  0  0  0  0  0  0  0  0  0
   10.1297   -1.6575   23.2324 C   0  0  0  0  0  0  0  0  0  0  0  0
    9.4684   -1.6929   26.7263 F   0  0  0  0  0  0  0  0  0  0  0  0
    7.7963   -7.7906   17.9837 C   0  0  0  0  0  0  0  0  0  0  0  0
   10.5884   -3.0725   16.7902 O   0  0  0  0  0  0  0  0  0  0  0  0
   10.4323   -5.3494   20.3516 C   0  0  0  0  0  0  0  0  0  0  0  0
    7.1156   -7.5454   16.8218 C   0  0  0  0  0  0  0  0  0  0  0  0
   10.3885   -4.4388   19.2773 C   0  0  0  0  0  0  0  0  0  0  0  0
    4.5160   -9.3822   15.0841 C   0  0  0  0  0  0  0  0  0  0  0  0
  1  3  4  0
  1 24  4  0
  2  6  4  0
  2 15  4  0
  3  5  4  0
  3  6  4  0
  4 21  4  0
  4 29  4  0
  5 15  4  0
  5 28  1  0
  6 16  4  0
  7 18  4  0
  7 26  4  0
  8 18  1  0
  8 19  4  0
  8 22  4  0
  9 12  4  0
  9 19  4  0
 10 12  4  0
 10 22  4  0
 11 20  4  0
 11 21  4  0
 12 23  1  0
 13 20  4  0
 13 29  4  0
 14 17  4  0
 14 28  4  0
 15 25  2  0
 16 27  4  0
 17 18  4  0
 20 27  1  0
 24 27  4  0
 26 28  4  0
M  END
$$$$

 Created by Python create_sdf_string function

 29 33  0  0  0  0  0  0  0  0999 V2000
    8.8270   -7.0288   18.4251 C   0  0  0  0  0  0  0  0  0  0  0  0
    9.1576   -4.6236   15.8860 O   0  0  0  0  0  0  0  0  0  0  0  0
    9.1509   -5.9108   17.7177 C   0  0  0  0  0  0  0  0  0  0  0  0
    3.6373   -9.5349   16.0582 N   0  0  0  0  0  0  0  0  0  0  0  0
    9.9275   -4.8001   18.0438 N   0  0  0  0  0  0  0  0  0  0  0  0
    8.5908   -5.7425   16.4412 C   0  0  0  0  0  0  0  0  0  0  0  0
   10.5993   -4.8981   21.6068 C   0  0  0  0  0  0  0  0  0  0  0  0
   10.4258   -3.0106   23.0998 C   0  0  0  0  0  0  0  0  0  0  0  0
   10.2148   -3.4364   25.4200 C   0  0  0  0  0  0  0  0  0  0  0  0
    9.7853   -1.1840   24.4927 C   0  0  0  0  0  0  0  0  0  0  0  0
    5.0276   -8.5227   17.5352 C   0  0  0  0  0  0  0  0  0  0  0  0
    9.8187   -2.0895   25.5800 C   0  0  0  0  0  0  0  0  0  0  0  0
    5.6473   -8.7216   15.3158 C   0  0  0  0  0  0  0  0  0  0  0  0
   10.7581   -3.1233   19.4720 N   0  0  0  0  0  0  0  0  0  0  0  0
    9.9571   -4.0573   16.8866 C   0  0  0  0  0  0  0  0  0  0  0  0
    7.6213   -6.5618   16.0087 C   0  0  0  0  0  0  0  0  0  0  0  0
   10.8583   -2.6527   20.7222 C   0  0  0  0  0  0  0  0  0  0  0  0
   10.6412   -3.5089   21.7936 C   0  0  0  0  0  0  0  0  0  0  0  0
   10.4972   -3.8968   24.1589 C   0  0  0  0  0  0  0  0  0  0  0  0
    5.9260   -8.2736   16.5517 C   0  0  0  0  0  0  0  0  0  0  0  0
    3.8816   -9.1166   17.2493 C   0  0  0  0  0  0  0  0  0  0  0  0
   10.1297   -1.6575   23.2324 C   0  0  0  0  0  0  0  0  0  0  0  0
    9.4684   -1.6929   26.7263 F   0  0  0  0  0  0  0  0  0  0  0  0
    7.7963   -7.7906   17.9837 C   0  0  0  0  0  0  0  0  0  0  0  0
   10.5884   -3.0725   16.7902 O   0  0  0  0  0  0  0  0  0  0  0  0
   10.4323   -5.3494   20.3516 C   0  0  0  0  0  0  0  0  0  0  0  0
    7.1156   -7.5454   16.8218 C   0  0  0  0  0  0  0  0  0  0  0  0
   10.3885   -4.4388   19.2773 C   0  0  0  0  0  0  0  0  0  0  0  0
    4.5160   -9.3822   15.0841 C   0  0  0  0  0  0  0  0  0  0  0  0
  1  3  4  0
  1 24  4  0
  2  6  4  0
  2 15  4  0
  3  5  4  0
  3  6  4  0
  4 21  4  0
  4 29  4  0
  5 15  4  0
  5 28  1  0
  6 16  4  0
  7 18  4  0
  7 26  4  0
  8 18  1  0
  8 19  4  0
  8 22  4  0
  9 12  4  0
  9 19  4  0
 10 12  4  0
 10 22  4  0
 11 20  4  0
 11 21  4  0
 12 23  1  0
 13 20  4  0
 13 29  4  0
 14 17  4  0
 14 28  4  0
 15 25  2  0
 16 27  4  0
 17 18  4  0
 20 27  1  0
 24 27  4  0
 26 28  4  0
M  END
$$$$

 Created by Python create_sdf_string function

 29 33  0  0  0  0  0  0  0  0999 V2000
    8.8270   -7.0288   18.4251 C   0  0  0  0  0  0  0  0  0  0  0  0
    9.1576   -4.6236   15.8860 O   0  0  0  0  0  0  0  0  0  0  0  0
    9.1509   -5.9108   17.7177 C   0  0  0  0  0  0  0  0  0  0  0  0
    3.6373   -9.5349   16.0582 N   0  0  0  0  0  0  0  0  0  0  0  0
    9.9275   -4.8001   18.0438 N   0  0  0  0  0  0  0  0  0  0  0  0
    8.5908   -5.7425   16.4412 C   0  0  0  0  0  0  0  0  0  0  0  0
   10.5993   -4.8981   21.6068 C   0  0  0  0  0  0  0  0  0  0  0  0
   10.4258   -3.0106   23.0998 C   0  0  0  0  0  0  0  0  0  0  0  0
   10.2148   -3.4364   25.4200 C   0  0  0  0  0  0  0  0  0  0  0  0
    9.7853   -1.1840   24.4927 C   0  0  0  0  0  0  0  0  0  0  0  0
    5.0276   -8.5227   17.5352 C   0  0  0  0  0  0  0  0  0  0  0  0
    9.8187   -2.0895   25.5800 C   0  0  0  0  0  0  0  0  0  0  0  0
    5.6473   -8.7216   15.3158 C   0  0  0  0  0  0  0  0  0  0  0  0
   10.7581   -3.1233   19.4720 N   0  0  0  0  0  0  0  0  0  0  0  0
    9.9571   -4.0573   16.8866 C   0  0  0  0  0  0  0  0  0  0  0  0
    7.6213   -6.5618   16.0087 C   0  0  0  0  0  0  0  0  0  0  0  0
   10.8583   -2.6527   20.7222 C   0  0  0  0  0  0  0  0  0  0  0  0
   10.6412   -3.5089   21.7936 C   0  0  0  0  0  0  0  0  0  0  0  0
   10.4972   -3.8968   24.1589 C   0  0  0  0  0  0  0  0  0  0  0  0
    5.9260   -8.2736   16.5517 C   0  0  0  0  0  0  0  0  0  0  0  0
    3.8816   -9.1166   17.2493 C   0  0  0  0  0  0  0  0  0  0  0  0
   10.1297   -1.6575   23.2324 C   0  0  0  0  0  0  0  0  0  0  0  0
    9.4684   -1.6929   26.7263 F   0  0  0  0  0  0  0  0  0  0  0  0
    7.7963   -7.7906   17.9837 C   0  0  0  0  0  0  0  0  0  0  0  0
   10.5884   -3.0725   16.7902 O   0  0  0  0  0  0  0  0  0  0  0  0
   10.4323   -5.3494   20.3516 C   0  0  0  0  0  0  0  0  0  0  0  0
    7.1156   -7.5454   16.8218 C   0  0  0  0  0  0  0  0  0  0  0  0
   10.3885   -4.4388   19.2773 C   0  0  0  0  0  0  0  0  0  0  0  0
    4.5160   -9.3822   15.0841 C   0  0  0  0  0  0  0  0  0  0  0  0
  1  3  4  0
  1 24  4  0
  2  6  4  0
  2 15  4  0
  3  5  4  0
  3  6  4  0
  4 21  4  0
  4 29  4  0
  5 15  4  0
  5 28  1  0
  6 16  4  0
  7 18  4  0
  7 26  4  0
  8 18  1  0
  8 19  4  0
  8 22  4  0
  9 12  4  0
  9 19  4  0
 10 12  4  0
 10 22  4  0
 11 20  4  0
 11 21  4  0
 12 23  1  0
 13 20  4  0
 13 29  4  0
 14 17  4  0
 14 28  4  0
 15 25  2  0
 16 27  4  0
 17 18  4  0
 20 27  1  0
 24 27  4  0
 26 28  4  0
M  END
$$$$

 Created by Python create_sdf_string function

 29 33  0  0  0  0  0  0  0  0999 V2000
    8.8270   -7.0288   18.4251 C   0  0  0  0  0  0  0  0  0  0  0  0
    9.1576   -4.6236   15.8860 O   0  0  0  0  0  0  0  0  0  0  0  0
    9.1509   -5.9108   17.7177 C   0  0  0  0  0  0  0  0  0  0  0  0
    3.6373   -9.5349   16.0582 N   0  0  0  0  0  0  0  0  0  0  0  0
    9.9275   -4.8001   18.0438 N   0  0  0  0  0  0  0  0  0  0  0  0
    8.5908   -5.7425   16.4412 C   0  0  0  0  0  0  0  0  0  0  0  0
   10.5993   -4.8981   21.6068 C   0  0  0  0  0  0  0  0  0  0  0  0
   10.4258   -3.0106   23.0998 C   0  0  0  0  0  0  0  0  0  0  0  0
   10.2148   -3.4364   25.4200 C   0  0  0  0  0  0  0  0  0  0  0  0
    9.7853   -1.1840   24.4927 C   0  0  0  0  0  0  0  0  0  0  0  0
    5.0276   -8.5227   17.5352 C   0  0  0  0  0  0  0  0  0  0  0  0
    9.8187   -2.0895   25.5800 C   0  0  0  0  0  0  0  0  0  0  0  0
    5.6473   -8.7216   15.3158 C   0  0  0  0  0  0  0  0  0  0  0  0
   10.7581   -3.1233   19.4720 N   0  0  0  0  0  0  0  0  0  0  0  0
    9.9571   -4.0573   16.8866 C   0  0  0  0  0  0  0  0  0  0  0  0
    7.6213   -6.5618   16.0087 C   0  0  0  0  0  0  0  0  0  0  0  0
   10.8583   -2.6527   20.7222 C   0  0  0  0  0  0  0  0  0  0  0  0
   10.6412   -3.5089   21.7936 C   0  0  0  0  0  0  0  0  0  0  0  0
   10.4972   -3.8968   24.1589 C   0  0  0  0  0  0  0  0  0  0  0  0
    5.9260   -8.2736   16.5517 C   0  0  0  0  0  0  0  0  0  0  0  0
    3.8816   -9.1166   17.2493 C   0  0  0  0  0  0  0  0  0  0  0  0
   10.1297   -1.6575   23.2324 C   0  0  0  0  0  0  0  0  0  0  0  0
    9.4684   -1.6929   26.7263 F   0  0  0  0  0  0  0  0  0  0  0  0
    7.7963   -7.7906   17.9837 C   0  0  0  0  0  0  0  0  0  0  0  0
   10.5884   -3.0725   16.7902 O   0  0  0  0  0  0  0  0  0  0  0  0
   10.4323   -5.3494   20.3516 C   0  0  0  0  0  0  0  0  0  0  0  0
    7.1156   -7.5454   16.8218 C   0  0  0  0  0  0  0  0  0  0  0  0
   10.3885   -4.4388   19.2773 C   0  0  0  0  0  0  0  0  0  0  0  0
    4.5160   -9.3822   15.0841 C   0  0  0  0  0  0  0  0  0  0  0  0
  1  3  4  0
  1 24  4  0
  2  6  4  0
  2 15  4  0
  3  5  4  0
  3  6  4  0
  4 21  4  0
  4 29  4  0
  5 15  4  0
  5 28  1  0
  6 16  4  0
  7 18  4  0
  7 26  4  0
  8 18  1  0
  8 19  4  0
  8 22  4  0
  9 12  4  0
  9 19  4  0
 10 12  4  0
 10 22  4  0
 11 20  4  0
 11 21  4  0
 12 23  1  0
 13 20  4  0
 13 29  4  0
 14 17  4  0
 14 28  4  0
 15 25  2  0
 16 27  4  0
 17 18  4  0
 20 27  1  0
 24 27  4  0
 26 28  4  0
M  END
$$$$

 Created by Python create_sdf_string function

 29 33  0  0  0  0  0  0  0  0999 V2000
    8.8270   -7.0288   18.4251 C   0  0  0  0  0  0  0  0  0  0  0  0
    9.1576   -4.6236   15.8860 O   0  0  0  0  0  0  0  0  0  0  0  0
    9.1509   -5.9108   17.7177 C   0  0  0  0  0  0  0  0  0  0  0  0
    3.6373   -9.5349   16.0582 N   0  0  0  0  0  0  0  0  0  0  0  0
    9.9275   -4.8001   18.0438 N   0  0  0  0  0  0  0  0  0  0  0  0
    8.5908   -5.7425   16.4412 C   0  0  0  0  0  0  0  0  0  0  0  0
   10.5993   -4.8981   21.6068 C   0  0  0  0  0  0  0  0  0  0  0  0
   10.4258   -3.0106   23.0998 C   0  0  0  0  0  0  0  0  0  0  0  0
   10.2148   -3.4364   25.4200 C   0  0  0  0  0  0  0  0  0  0  0  0
    9.7853   -1.1840   24.4927 C   0  0  0  0  0  0  0  0  0  0  0  0
    5.0276   -8.5227   17.5352 C   0  0  0  0  0  0  0  0  0  0  0  0
    9.8187   -2.0895   25.5800 C   0  0  0  0  0  0  0  0  0  0  0  0
    5.6473   -8.7216   15.3158 C   0  0  0  0  0  0  0  0  0  0  0  0
   10.7581   -3.1233   19.4720 N   0  0  0  0  0  0  0  0  0  0  0  0
    9.9571   -4.0573   16.8866 C   0  0  0  0  0  0  0  0  0  0  0  0
    7.6213   -6.5618   16.0087 C   0  0  0  0  0  0  0  0  0  0  0  0
   10.8583   -2.6527   20.7222 C   0  0  0  0  0  0  0  0  0  0  0  0
   10.6412   -3.5089   21.7936 C   0  0  0  0  0  0  0  0  0  0  0  0
   10.4972   -3.8968   24.1589 C   0  0  0  0  0  0  0  0  0  0  0  0
    5.9260   -8.2736   16.5517 C   0  0  0  0  0  0  0  0  0  0  0  0
    3.8816   -9.1166   17.2493 C   0  0  0  0  0  0  0  0  0  0  0  0
   10.1297   -1.6575   23.2324 C   0  0  0  0  0  0  0  0  0  0  0  0
    9.4684   -1.6929   26.7263 F   0  0  0  0  0  0  0  0  0  0  0  0
    7.7963   -7.7906   17.9837 C   0  0  0  0  0  0  0  0  0  0  0  0
   10.5884   -3.0725   16.7902 O   0  0  0  0  0  0  0  0  0  0  0  0
   10.4323   -5.3494   20.3516 C   0  0  0  0  0  0  0  0  0  0  0  0
    7.1156   -7.5454   16.8218 C   0  0  0  0  0  0  0  0  0  0  0  0
   10.3885   -4.4388   19.2773 C   0  0  0  0  0  0  0  0  0  0  0  0
    4.5160   -9.3822   15.0841 C   0  0  0  0  0  0  0  0  0  0  0  0
  1  3  4  0
  1 24  4  0
  2  6  4  0
  2 15  4  0
  3  5  4  0
  3  6  4  0
  4 21  4  0
  4 29  4  0
  5 15  4  0
  5 28  1  0
  6 16  4  0
  7 18  4  0
  7 26  4  0
  8 18  1  0
  8 19  4  0
  8 22  4  0
  9 12  4  0
  9 19  4  0
 10 12  4  0
 10 22  4  0
 11 20  4  0
 11 21  4  0
 12 23  1  0
 13 20  4  0
 13 29  4  0
 14 17  4  0
 14 28  4  0
 15 25  2  0
 16 27  4  0
 17 18  4  0
 20 27  1  0
 24 27  4  0
 26 28  4  0
M  END
$$$$

 Created by Python create_sdf_string function

 29 33  0  0  0  0  0  0  0  0999 V2000
    8.8270   -7.0288   18.4251 C   0  0  0  0  0  0  0  0  0  0  0  0
    9.1576   -4.6236   15.8860 O   0  0  0  0  0  0  0  0  0  0  0  0
    9.1509   -5.9108   17.7177 C   0  0  0  0  0  0  0  0  0  0  0  0
    3.6373   -9.5349   16.0582 N   0  0  0  0  0  0  0  0  0  0  0  0
    9.9275   -4.8001   18.0438 N   0  0  0  0  0  0  0  0  0  0  0  0
    8.5908   -5.7425   16.4412 C   0  0  0  0  0  0  0  0  0  0  0  0
   10.5993   -4.8981   21.6068 C   0  0  0  0  0  0  0  0  0  0  0  0
   10.4258   -3.0106   23.0998 C   0  0  0  0  0  0  0  0  0  0  0  0
   10.2148   -3.4364   25.4200 C   0  0  0  0  0  0  0  0  0  0  0  0
    9.7853   -1.1840   24.4927 C   0  0  0  0  0  0  0  0  0  0  0  0
    5.0276   -8.5227   17.5352 C   0  0  0  0  0  0  0  0  0  0  0  0
    9.8187   -2.0895   25.5800 C   0  0  0  0  0  0  0  0  0  0  0  0
    5.6473   -8.7216   15.3158 C   0  0  0  0  0  0  0  0  0  0  0  0
   10.7581   -3.1233   19.4720 N   0  0  0  0  0  0  0  0  0  0  0  0
    9.9571   -4.0573   16.8866 C   0  0  0  0  0  0  0  0  0  0  0  0
    7.6213   -6.5618   16.0087 C   0  0  0  0  0  0  0  0  0  0  0  0
   10.8583   -2.6527   20.7222 C   0  0  0  0  0  0  0  0  0  0  0  0
   10.6412   -3.5089   21.7936 C   0  0  0  0  0  0  0  0  0  0  0  0
   10.4972   -3.8968   24.1589 C   0  0  0  0  0  0  0  0  0  0  0  0
    5.9260   -8.2736   16.5517 C   0  0  0  0  0  0  0  0  0  0  0  0
    3.8816   -9.1166   17.2493 C   0  0  0  0  0  0  0  0  0  0  0  0
   10.1297   -1.6575   23.2324 C   0  0  0  0  0  0  0  0  0  0  0  0
    9.4684   -1.6929   26.7263 F   0  0  0  0  0  0  0  0  0  0  0  0
    7.7963   -7.7906   17.9837 C   0  0  0  0  0  0  0  0  0  0  0  0
   10.5884   -3.0725   16.7902 O   0  0  0  0  0  0  0  0  0  0  0  0
   10.4323   -5.3494   20.3516 C   0  0  0  0  0  0  0  0  0  0  0  0
    7.1156   -7.5454   16.8218 C   0  0  0  0  0  0  0  0  0  0  0  0
   10.3885   -4.4388   19.2773 C   0  0  0  0  0  0  0  0  0  0  0  0
    4.5160   -9.3822   15.0841 C   0  0  0  0  0  0  0  0  0  0  0  0
  1  3  4  0
  1 24  4  0
  2  6  4  0
  2 15  4  0
  3  5  4  0
  3  6  4  0
  4 21  4  0
  4 29  4  0
  5 15  4  0
  5 28  1  0
  6 16  4  0
  7 18  4  0
  7 26  4  0
  8 18  1  0
  8 19  4  0
  8 22  4  0
  9 12  4  0
  9 19  4  0
 10 12  4  0
 10 22  4  0
 11 20  4  0
 11 21  4  0
 12 23  1  0
 13 20  4  0
 13 29  4  0
 14 17  4  0
 14 28  4  0
 15 25  2  0
 16 27  4  0
 17 18  4  0
 20 27  1  0
 24 27  4  0
 26 28  4  0
M  END
$$$$

 Created by Python create_sdf_string function

 29 33  0  0  0  0  0  0  0  0999 V2000
    8.8270   -7.0288   18.4251 C   0  0  0  0  0  0  0  0  0  0  0  0
    9.1576   -4.6236   15.8860 O   0  0  0  0  0  0  0  0  0  0  0  0
    9.1509   -5.9108   17.7177 C   0  0  0  0  0  0  0  0  0  0  0  0
    3.6373   -9.5349   16.0582 N   0  0  0  0  0  0  0  0  0  0  0  0
    9.9275   -4.8001   18.0438 N   0  0  0  0  0  0  0  0  0  0  0  0
    8.5908   -5.7425   16.4412 C   0  0  0  0  0  0  0  0  0  0  0  0
   10.5993   -4.8981   21.6068 C   0  0  0  0  0  0  0  0  0  0  0  0
   10.4258   -3.0106   23.0998 C   0  0  0  0  0  0  0  0  0  0  0  0
   10.2148   -3.4364   25.4200 C   0  0  0  0  0  0  0  0  0  0  0  0
    9.7853   -1.1840   24.4927 C   0  0  0  0  0  0  0  0  0  0  0  0
    5.0276   -8.5227   17.5352 C   0  0  0  0  0  0  0  0  0  0  0  0
    9.8187   -2.0895   25.5800 C   0  0  0  0  0  0  0  0  0  0  0  0
    5.6473   -8.7216   15.3158 C   0  0  0  0  0  0  0  0  0  0  0  0
   10.7581   -3.1233   19.4720 N   0  0  0  0  0  0  0  0  0  0  0  0
    9.9571   -4.0573   16.8866 C   0  0  0  0  0  0  0  0  0  0  0  0
    7.6213   -6.5618   16.0087 C   0  0  0  0  0  0  0  0  0  0  0  0
   10.8583   -2.6527   20.7222 C   0  0  0  0  0  0  0  0  0  0  0  0
   10.6412   -3.5089   21.7936 C   0  0  0  0  0  0  0  0  0  0  0  0
   10.4972   -3.8968   24.1589 C   0  0  0  0  0  0  0  0  0  0  0  0
    5.9260   -8.2736   16.5517 C   0  0  0  0  0  0  0  0  0  0  0  0
    3.8816   -9.1166   17.2493 C   0  0  0  0  0  0  0  0  0  0  0  0
   10.1297   -1.6575   23.2324 C   0  0  0  0  0  0  0  0  0  0  0  0
    9.4684   -1.6929   26.7263 F   0  0  0  0  0  0  0  0  0  0  0  0
    7.7963   -7.7906   17.9837 C   0  0  0  0  0  0  0  0  0  0  0  0
   10.5884   -3.0725   16.7902 O   0  0  0  0  0  0  0  0  0  0  0  0
   10.4323   -5.3494   20.3516 C   0  0  0  0  0  0  0  0  0  0  0  0
    7.1156   -7.5454   16.8218 C   0  0  0  0  0  0  0  0  0  0  0  0
   10.3885   -4.4388   19.2773 C   0  0  0  0  0  0  0  0  0  0  0  0
    4.5160   -9.3822   15.0841 C   0  0  0  0  0  0  0  0  0  0  0  0
  1  3  4  0
  1 24  4  0
  2  6  4  0
  2 15  4  0
  3  5  4  0
  3  6  4  0
  4 21  4  0
  4 29  4  0
  5 15  4  0
  5 28  1  0
  6 16  4  0
  7 18  4  0
  7 26  4  0
  8 18  1  0
  8 19  4  0
  8 22  4  0
  9 12  4  0
  9 19  4  0
 10 12  4  0
 10 22  4  0
 11 20  4  0
 11 21  4  0
 12 23  1  0
 13 20  4  0
 13 29  4  0
 14 17  4  0
 14 28  4  0
 15 25  2  0
 16 27  4  0
 17 18  4  0
 20 27  1  0
 24 27  4  0
 26 28  4  0
M  END
$$$$

 Created by Python create_sdf_string function

 29 33  0  0  0  0  0  0  0  0999 V2000
    8.8270   -7.0288   18.4251 C   0  0  0  0  0  0  0  0  0  0  0  0
    9.1576   -4.6236   15.8860 O   0  0  0  0  0  0  0  0  0  0  0  0
    9.1509   -5.9108   17.7177 C   0  0  0  0  0  0  0  0  0  0  0  0
    3.6373   -9.5349   16.0582 N   0  0  0  0  0  0  0  0  0  0  0  0
    9.9275   -4.8001   18.0438 N   0  0  0  0  0  0  0  0  0  0  0  0
    8.5908   -5.7425   16.4412 C   0  0  0  0  0  0  0  0  0  0  0  0
   10.5993   -4.8981   21.6068 C   0  0  0  0  0  0  0  0  0  0  0  0
   10.4258   -3.0106   23.0998 C   0  0  0  0  0  0  0  0  0  0  0  0
   10.2148   -3.4364   25.4200 C   0  0  0  0  0  0  0  0  0  0  0  0
    9.7853   -1.1840   24.4927 C   0  0  0  0  0  0  0  0  0  0  0  0
    5.0276   -8.5227   17.5352 C   0  0  0  0  0  0  0  0  0  0  0  0
    9.8187   -2.0895   25.5800 C   0  0  0  0  0  0  0  0  0  0  0  0
    5.6473   -8.7216   15.3158 C   0  0  0  0  0  0  0  0  0  0  0  0
   10.7581   -3.1233   19.4720 N   0  0  0  0  0  0  0  0  0  0  0  0
    9.9571   -4.0573   16.8866 C   0  0  0  0  0  0  0  0  0  0  0  0
    7.6213   -6.5618   16.0087 C   0  0  0  0  0  0  0  0  0  0  0  0
   10.8583   -2.6527   20.7222 C   0  0  0  0  0  0  0  0  0  0  0  0
   10.6412   -3.5089   21.7936 C   0  0  0  0  0  0  0  0  0  0  0  0
   10.4972   -3.8968   24.1589 C   0  0  0  0  0  0  0  0  0  0  0  0
    5.9260   -8.2736   16.5517 C   0  0  0  0  0  0  0  0  0  0  0  0
    3.8816   -9.1166   17.2493 C   0  0  0  0  0  0  0  0  0  0  0  0
   10.1297   -1.6575   23.2324 C   0  0  0  0  0  0  0  0  0  0  0  0
    9.4684   -1.6929   26.7263 F   0  0  0  0  0  0  0  0  0  0  0  0
    7.7963   -7.7906   17.9837 C   0  0  0  0  0  0  0  0  0  0  0  0
   10.5884   -3.0725   16.7902 O   0  0  0  0  0  0  0  0  0  0  0  0
   10.4323   -5.3494   20.3516 C   0  0  0  0  0  0  0  0  0  0  0  0
    7.1156   -7.5454   16.8218 C   0  0  0  0  0  0  0  0  0  0  0  0
   10.3885   -4.4388   19.2773 C   0  0  0  0  0  0  0  0  0  0  0  0
    4.5160   -9.3822   15.0841 C   0  0  0  0  0  0  0  0  0  0  0  0
  1  3  4  0
  1 24  4  0
  2  6  4  0
  2 15  4  0
  3  5  4  0
  3  6  4  0
  4 21  4  0
  4 29  4  0
  5 15  4  0
  5 28  1  0
  6 16  4  0
  7 18  4  0
  7 26  4  0
  8 18  1  0
  8 19  4  0
  8 22  4  0
  9 12  4  0
  9 19  4  0
 10 12  4  0
 10 22  4  0
 11 20  4  0
 11 21  4  0
 12 23  1  0
 13 20  4  0
 13 29  4  0
 14 17  4  0
 14 28  4  0
 15 25  2  0
 16 27  4  0
 17 18  4  0
 20 27  1  0
 24 27  4  0
 26 28  4  0
M  END
$$$$

 Created by Python create_sdf_string function

 29 33  0  0  0  0  0  0  0  0999 V2000
    8.8270   -7.0288   18.4251 C   0  0  0  0  0  0  0  0  0  0  0  0
    9.1576   -4.6236   15.8860 O   0  0  0  0  0  0  0  0  0  0  0  0
    9.1509   -5.9108   17.7177 C   0  0  0  0  0  0  0  0  0  0  0  0
    3.6373   -9.5349   16.0582 N   0  0  0  0  0  0  0  0  0  0  0  0
    9.9275   -4.8001   18.0438 N   0  0  0  0  0  0  0  0  0  0  0  0
    8.5908   -5.7425   16.4412 C   0  0  0  0  0  0  0  0  0  0  0  0
   10.5993   -4.8981   21.6068 C   0  0  0  0  0  0  0  0  0  0  0  0
   10.4258   -3.0106   23.0998 C   0  0  0  0  0  0  0  0  0  0  0  0
   10.2148   -3.4364   25.4200 C   0  0  0  0  0  0  0  0  0  0  0  0
    9.7853   -1.1840   24.4927 C   0  0  0  0  0  0  0  0  0  0  0  0
    5.0276   -8.5227   17.5352 C   0  0  0  0  0  0  0  0  0  0  0  0
    9.8187   -2.0895   25.5800 C   0  0  0  0  0  0  0  0  0  0  0  0
    5.6473   -8.7216   15.3158 C   0  0  0  0  0  0  0  0  0  0  0  0
   10.7581   -3.1233   19.4720 N   0  0  0  0  0  0  0  0  0  0  0  0
    9.9571   -4.0573   16.8866 C   0  0  0  0  0  0  0  0  0  0  0  0
    7.6213   -6.5618   16.0087 C   0  0  0  0  0  0  0  0  0  0  0  0
   10.8583   -2.6527   20.7222 C   0  0  0  0  0  0  0  0  0  0  0  0
   10.6412   -3.5089   21.7936 C   0  0  0  0  0  0  0  0  0  0  0  0
   10.4972   -3.8968   24.1589 C   0  0  0  0  0  0  0  0  0  0  0  0
    5.9260   -8.2736   16.5517 C   0  0  0  0  0  0  0  0  0  0  0  0
    3.8816   -9.1166   17.2493 C   0  0  0  0  0  0  0  0  0  0  0  0
   10.1297   -1.6575   23.2324 C   0  0  0  0  0  0  0  0  0  0  0  0
    9.4684   -1.6929   26.7263 F   0  0  0  0  0  0  0  0  0  0  0  0
    7.7963   -7.7906   17.9837 C   0  0  0  0  0  0  0  0  0  0  0  0
   10.5884   -3.0725   16.7902 O   0  0  0  0  0  0  0  0  0  0  0  0
   10.4323   -5.3494   20.3516 C   0  0  0  0  0  0  0  0  0  0  0  0
    7.1156   -7.5454   16.8218 C   0  0  0  0  0  0  0  0  0  0  0  0
   10.3885   -4.4388   19.2773 C   0  0  0  0  0  0  0  0  0  0  0  0
    4.5160   -9.3822   15.0841 C   0  0  0  0  0  0  0  0  0  0  0  0
  1  3  4  0
  1 24  4  0
  2  6  4  0
  2 15  4  0
  3  5  4  0
  3  6  4  0
  4 21  4  0
  4 29  4  0
  5 15  4  0
  5 28  1  0
  6 16  4  0
  7 18  4  0
  7 26  4  0
  8 18  1  0
  8 19  4  0
  8 22  4  0
  9 12  4  0
  9 19  4  0
 10 12  4  0
 10 22  4  0
 11 20  4  0
 11 21  4  0
 12 23  1  0
 13 20  4  0
 13 29  4  0
 14 17  4  0
 14 28  4  0
 15 25  2  0
 16 27  4  0
 17 18  4  0
 20 27  1  0
 24 27  4  0
 26 28  4  0
M  END
$$$$

 Created by Python create_sdf_string function

 29 33  0  0  0  0  0  0  0  0999 V2000
    8.8270   -7.0288   18.4251 C   0  0  0  0  0  0  0  0  0  0  0  0
    9.1576   -4.6236   15.8860 O   0  0  0  0  0  0  0  0  0  0  0  0
    9.1509   -5.9108   17.7177 C   0  0  0  0  0  0  0  0  0  0  0  0
    3.6373   -9.5349   16.0582 N   0  0  0  0  0  0  0  0  0  0  0  0
    9.9275   -4.8001   18.0438 N   0  0  0  0  0  0  0  0  0  0  0  0
    8.5908   -5.7425   16.4412 C   0  0  0  0  0  0  0  0  0  0  0  0
   10.5993   -4.8981   21.6068 C   0  0  0  0  0  0  0  0  0  0  0  0
   10.4258   -3.0106   23.0998 C   0  0  0  0  0  0  0  0  0  0  0  0
   10.2148   -3.4364   25.4200 C   0  0  0  0  0  0  0  0  0  0  0  0
    9.7853   -1.1840   24.4927 C   0  0  0  0  0  0  0  0  0  0  0  0
    5.0276   -8.5227   17.5352 C   0  0  0  0  0  0  0  0  0  0  0  0
    9.8187   -2.0895   25.5800 C   0  0  0  0  0  0  0  0  0  0  0  0
    5.6473   -8.7216   15.3158 C   0  0  0  0  0  0  0  0  0  0  0  0
   10.7581   -3.1233   19.4720 N   0  0  0  0  0  0  0  0  0  0  0  0
    9.9571   -4.0573   16.8866 C   0  0  0  0  0  0  0  0  0  0  0  0
    7.6213   -6.5618   16.0087 C   0  0  0  0  0  0  0  0  0  0  0  0
   10.8583   -2.6527   20.7222 C   0  0  0  0  0  0  0  0  0  0  0  0
   10.6412   -3.5089   21.7936 C   0  0  0  0  0  0  0  0  0  0  0  0
   10.4972   -3.8968   24.1589 C   0  0  0  0  0  0  0  0  0  0  0  0
    5.9260   -8.2736   16.5517 C   0  0  0  0  0  0  0  0  0  0  0  0
    3.8816   -9.1166   17.2493 C   0  0  0  0  0  0  0  0  0  0  0  0
   10.1297   -1.6575   23.2324 C   0  0  0  0  0  0  0  0  0  0  0  0
    9.4684   -1.6929   26.7263 F   0  0  0  0  0  0  0  0  0  0  0  0
    7.7963   -7.7906   17.9837 C   0  0  0  0  0  0  0  0  0  0  0  0
   10.5884   -3.0725   16.7902 O   0  0  0  0  0  0  0  0  0  0  0  0
   10.4323   -5.3494   20.3516 C   0  0  0  0  0  0  0  0  0  0  0  0
    7.1156   -7.5454   16.8218 C   0  0  0  0  0  0  0  0  0  0  0  0
   10.3885   -4.4388   19.2773 C   0  0  0  0  0  0  0  0  0  0  0  0
    4.5160   -9.3822   15.0841 C   0  0  0  0  0  0  0  0  0  0  0  0
  1  3  4  0
  1 24  4  0
  2  6  4  0
  2 15  4  0
  3  5  4  0
  3  6  4  0
  4 21  4  0
  4 29  4  0
  5 15  4  0
  5 28  1  0
  6 16  4  0
  7 18  4  0
  7 26  4  0
  8 18  1  0
  8 19  4  0
  8 22  4  0
  9 12  4  0
  9 19  4  0
 10 12  4  0
 10 22  4  0
 11 20  4  0
 11 21  4  0
 12 23  1  0
 13 20  4  0
 13 29  4  0
 14 17  4  0
 14 28  4  0
 15 25  2  0
 16 27  4  0
 17 18  4  0
 20 27  1  0
 24 27  4  0
 26 28  4  0
M  END
$$$$

 Created by Python create_sdf_string function

 29 33  0  0  0  0  0  0  0  0999 V2000
    8.8270   -7.0288   18.4251 C   0  0  0  0  0  0  0  0  0  0  0  0
    9.1576   -4.6236   15.8860 O   0  0  0  0  0  0  0  0  0  0  0  0
    9.1509   -5.9108   17.7177 C   0  0  0  0  0  0  0  0  0  0  0  0
    3.6373   -9.5349   16.0582 N   0  0  0  0  0  0  0  0  0  0  0  0
    9.9275   -4.8001   18.0438 N   0  0  0  0  0  0  0  0  0  0  0  0
    8.5908   -5.7425   16.4412 C   0  0  0  0  0  0  0  0  0  0  0  0
   10.5993   -4.8981   21.6068 C   0  0  0  0  0  0  0  0  0  0  0  0
   10.4258   -3.0106   23.0998 C   0  0  0  0  0  0  0  0  0  0  0  0
   10.2148   -3.4364   25.4200 C   0  0  0  0  0  0  0  0  0  0  0  0
    9.7853   -1.1840   24.4927 C   0  0  0  0  0  0  0  0  0  0  0  0
    5.0276   -8.5227   17.5352 C   0  0  0  0  0  0  0  0  0  0  0  0
    9.8187   -2.0895   25.5800 C   0  0  0  0  0  0  0  0  0  0  0  0
    5.6473   -8.7216   15.3158 C   0  0  0  0  0  0  0  0  0  0  0  0
   10.7581   -3.1233   19.4720 N   0  0  0  0  0  0  0  0  0  0  0  0
    9.9571   -4.0573   16.8866 C   0  0  0  0  0  0  0  0  0  0  0  0
    7.6213   -6.5618   16.0087 C   0  0  0  0  0  0  0  0  0  0  0  0
   10.8583   -2.6527   20.7222 C   0  0  0  0  0  0  0  0  0  0  0  0
   10.6412   -3.5089   21.7936 C   0  0  0  0  0  0  0  0  0  0  0  0
   10.4972   -3.8968   24.1589 C   0  0  0  0  0  0  0  0  0  0  0  0
    5.9260   -8.2736   16.5517 C   0  0  0  0  0  0  0  0  0  0  0  0
    3.8816   -9.1166   17.2493 C   0  0  0  0  0  0  0  0  0  0  0  0
   10.1297   -1.6575   23.2324 C   0  0  0  0  0  0  0  0  0  0  0  0
    9.4684   -1.6929   26.7263 F   0  0  0  0  0  0  0  0  0  0  0  0
    7.7963   -7.7906   17.9837 C   0  0  0  0  0  0  0  0  0  0  0  0
   10.5884   -3.0725   16.7902 O   0  0  0  0  0  0  0  0  0  0  0  0
   10.4323   -5.3494   20.3516 C   0  0  0  0  0  0  0  0  0  0  0  0
    7.1156   -7.5454   16.8218 C   0  0  0  0  0  0  0  0  0  0  0  0
   10.3885   -4.4388   19.2773 C   0  0  0  0  0  0  0  0  0  0  0  0
    4.5160   -9.3822   15.0841 C   0  0  0  0  0  0  0  0  0  0  0  0
  1  3  4  0
  1 24  4  0
  2  6  4  0
  2 15  4  0
  3  5  4  0
  3  6  4  0
  4 21  4  0
  4 29  4  0
  5 15  4  0
  5 28  1  0
  6 16  4  0
  7 18  4  0
  7 26  4  0
  8 18  1  0
  8 19  4  0
  8 22  4  0
  9 12  4  0
  9 19  4  0
 10 12  4  0
 10 22  4  0
 11 20  4  0
 11 21  4  0
 12 23  1  0
 13 20  4  0
 13 29  4  0
 14 17  4  0
 14 28  4  0
 15 25  2  0
 16 27  4  0
 17 18  4  0
 20 27  1  0
 24 27  4  0
 26 28  4  0
M  END
$$$$

 Created by Python create_sdf_string function

 29 33  0  0  0  0  0  0  0  0999 V2000
    8.8270   -7.0288   18.4251 C   0  0  0  0  0  0  0  0  0  0  0  0
    9.1576   -4.6236   15.8860 O   0  0  0  0  0  0  0  0  0  0  0  0
    9.1509   -5.9108   17.7177 C   0  0  0  0  0  0  0  0  0  0  0  0
    3.6373   -9.5349   16.0582 N   0  0  0  0  0  0  0  0  0  0  0  0
    9.9275   -4.8001   18.0438 N   0  0  0  0  0  0  0  0  0  0  0  0
    8.5908   -5.7425   16.4412 C   0  0  0  0  0  0  0  0  0  0  0  0
   10.5993   -4.8981   21.6068 C   0  0  0  0  0  0  0  0  0  0  0  0
   10.4258   -3.0106   23.0998 C   0  0  0  0  0  0  0  0  0  0  0  0
   10.2148   -3.4364   25.4200 C   0  0  0  0  0  0  0  0  0  0  0  0
    9.7853   -1.1840   24.4927 C   0  0  0  0  0  0  0  0  0  0  0  0
    5.0276   -8.5227   17.5352 C   0  0  0  0  0  0  0  0  0  0  0  0
    9.8187   -2.0895   25.5800 C   0  0  0  0  0  0  0  0  0  0  0  0
    5.6473   -8.7216   15.3158 C   0  0  0  0  0  0  0  0  0  0  0  0
   10.7581   -3.1233   19.4720 N   0  0  0  0  0  0  0  0  0  0  0  0
    9.9571   -4.0573   16.8866 C   0  0  0  0  0  0  0  0  0  0  0  0
    7.6213   -6.5618   16.0087 C   0  0  0  0  0  0  0  0  0  0  0  0
   10.8583   -2.6527   20.7222 C   0  0  0  0  0  0  0  0  0  0  0  0
   10.6412   -3.5089   21.7936 C   0  0  0  0  0  0  0  0  0  0  0  0
   10.4972   -3.8968   24.1589 C   0  0  0  0  0  0  0  0  0  0  0  0
    5.9260   -8.2736   16.5517 C   0  0  0  0  0  0  0  0  0  0  0  0
    3.8816   -9.1166   17.2493 C   0  0  0  0  0  0  0  0  0  0  0  0
   10.1297   -1.6575   23.2324 C   0  0  0  0  0  0  0  0  0  0  0  0
    9.4684   -1.6929   26.7263 F   0  0  0  0  0  0  0  0  0  0  0  0
    7.7963   -7.7906   17.9837 C   0  0  0  0  0  0  0  0  0  0  0  0
   10.5884   -3.0725   16.7902 O   0  0  0  0  0  0  0  0  0  0  0  0
   10.4323   -5.3494   20.3516 C   0  0  0  0  0  0  0  0  0  0  0  0
    7.1156   -7.5454   16.8218 C   0  0  0  0  0  0  0  0  0  0  0  0
   10.3885   -4.4388   19.2773 C   0  0  0  0  0  0  0  0  0  0  0  0
    4.5160   -9.3822   15.0841 C   0  0  0  0  0  0  0  0  0  0  0  0
  1  3  4  0
  1 24  4  0
  2  6  4  0
  2 15  4  0
  3  5  4  0
  3  6  4  0
  4 21  4  0
  4 29  4  0
  5 15  4  0
  5 28  1  0
  6 16  4  0
  7 18  4  0
  7 26  4  0
  8 18  1  0
  8 19  4  0
  8 22  4  0
  9 12  4  0
  9 19  4  0
 10 12  4  0
 10 22  4  0
 11 20  4  0
 11 21  4  0
 12 23  1  0
 13 20  4  0
 13 29  4  0
 14 17  4  0
 14 28  4  0
 15 25  2  0
 16 27  4  0
 17 18  4  0
 20 27  1  0
 24 27  4  0
 26 28  4  0
M  END
$$$$

 Created by Python create_sdf_string function

 29 33  0  0  0  0  0  0  0  0999 V2000
    8.8270   -7.0288   18.4251 C   0  0  0  0  0  0  0  0  0  0  0  0
    9.1576   -4.6236   15.8860 O   0  0  0  0  0  0  0  0  0  0  0  0
    9.1509   -5.9108   17.7177 C   0  0  0  0  0  0  0  0  0  0  0  0
    3.6373   -9.5349   16.0582 N   0  0  0  0  0  0  0  0  0  0  0  0
    9.9275   -4.8001   18.0438 N   0  0  0  0  0  0  0  0  0  0  0  0
    8.5908   -5.7425   16.4412 C   0  0  0  0  0  0  0  0  0  0  0  0
   10.5993   -4.8981   21.6068 C   0  0  0  0  0  0  0  0  0  0  0  0
   10.4258   -3.0106   23.0998 C   0  0  0  0  0  0  0  0  0  0  0  0
   10.2148   -3.4364   25.4200 C   0  0  0  0  0  0  0  0  0  0  0  0
    9.7853   -1.1840   24.4927 C   0  0  0  0  0  0  0  0  0  0  0  0
    5.0276   -8.5227   17.5352 C   0  0  0  0  0  0  0  0  0  0  0  0
    9.8187   -2.0895   25.5800 C   0  0  0  0  0  0  0  0  0  0  0  0
    5.6473   -8.7216   15.3158 C   0  0  0  0  0  0  0  0  0  0  0  0
   10.7581   -3.1233   19.4720 N   0  0  0  0  0  0  0  0  0  0  0  0
    9.9571   -4.0573   16.8866 C   0  0  0  0  0  0  0  0  0  0  0  0
    7.6213   -6.5618   16.0087 C   0  0  0  0  0  0  0  0  0  0  0  0
   10.8583   -2.6527   20.7222 C   0  0  0  0  0  0  0  0  0  0  0  0
   10.6412   -3.5089   21.7936 C   0  0  0  0  0  0  0  0  0  0  0  0
   10.4972   -3.8968   24.1589 C   0  0  0  0  0  0  0  0  0  0  0  0
    5.9260   -8.2736   16.5517 C   0  0  0  0  0  0  0  0  0  0  0  0
    3.8816   -9.1166   17.2493 C   0  0  0  0  0  0  0  0  0  0  0  0
   10.1297   -1.6575   23.2324 C   0  0  0  0  0  0  0  0  0  0  0  0
    9.4684   -1.6929   26.7263 F   0  0  0  0  0  0  0  0  0  0  0  0
    7.7963   -7.7906   17.9837 C   0  0  0  0  0  0  0  0  0  0  0  0
   10.5884   -3.0725   16.7902 O   0  0  0  0  0  0  0  0  0  0  0  0
   10.4323   -5.3494   20.3516 C   0  0  0  0  0  0  0  0  0  0  0  0
    7.1156   -7.5454   16.8218 C   0  0  0  0  0  0  0  0  0  0  0  0
   10.3885   -4.4388   19.2773 C   0  0  0  0  0  0  0  0  0  0  0  0
    4.5160   -9.3822   15.0841 C   0  0  0  0  0  0  0  0  0  0  0  0
  1  3  4  0
  1 24  4  0
  2  6  4  0
  2 15  4  0
  3  5  4  0
  3  6  4  0
  4 21  4  0
  4 29  4  0
  5 15  4  0
  5 28  1  0
  6 16  4  0
  7 18  4  0
  7 26  4  0
  8 18  1  0
  8 19  4  0
  8 22  4  0
  9 12  4  0
  9 19  4  0
 10 12  4  0
 10 22  4  0
 11 20  4  0
 11 21  4  0
 12 23  1  0
 13 20  4  0
 13 29  4  0
 14 17  4  0
 14 28  4  0
 15 25  2  0
 16 27  4  0
 17 18  4  0
 20 27  1  0
 24 27  4  0
 26 28  4  0
M  END
$$$$

 Created by Python create_sdf_string function

 29 33  0  0  0  0  0  0  0  0999 V2000
    8.8270   -7.0288   18.4251 C   0  0  0  0  0  0  0  0  0  0  0  0
    9.1576   -4.6236   15.8860 O   0  0  0  0  0  0  0  0  0  0  0  0
    9.1509   -5.9108   17.7177 C   0  0  0  0  0  0  0  0  0  0  0  0
    3.6373   -9.5349   16.0582 N   0  0  0  0  0  0  0  0  0  0  0  0
    9.9275   -4.8001   18.0438 N   0  0  0  0  0  0  0  0  0  0  0  0
    8.5908   -5.7425   16.4412 C   0  0  0  0  0  0  0  0  0  0  0  0
   10.5993   -4.8981   21.6068 C   0  0  0  0  0  0  0  0  0  0  0  0
   10.4258   -3.0106   23.0998 C   0  0  0  0  0  0  0  0  0  0  0  0
   10.2148   -3.4364   25.4200 C   0  0  0  0  0  0  0  0  0  0  0  0
    9.7853   -1.1840   24.4927 C   0  0  0  0  0  0  0  0  0  0  0  0
    5.0276   -8.5227   17.5352 C   0  0  0  0  0  0  0  0  0  0  0  0
    9.8187   -2.0895   25.5800 C   0  0  0  0  0  0  0  0  0  0  0  0
    5.6473   -8.7216   15.3158 C   0  0  0  0  0  0  0  0  0  0  0  0
   10.7581   -3.1233   19.4720 N   0  0  0  0  0  0  0  0  0  0  0  0
    9.9571   -4.0573   16.8866 C   0  0  0  0  0  0  0  0  0  0  0  0
    7.6213   -6.5618   16.0087 C   0  0  0  0  0  0  0  0  0  0  0  0
   10.8583   -2.6527   20.7222 C   0  0  0  0  0  0  0  0  0  0  0  0
   10.6412   -3.5089   21.7936 C   0  0  0  0  0  0  0  0  0  0  0  0
   10.4972   -3.8968   24.1589 C   0  0  0  0  0  0  0  0  0  0  0  0
    5.9260   -8.2736   16.5517 C   0  0  0  0  0  0  0  0  0  0  0  0
    3.8816   -9.1166   17.2493 C   0  0  0  0  0  0  0  0  0  0  0  0
   10.1297   -1.6575   23.2324 C   0  0  0  0  0  0  0  0  0  0  0  0
    9.4684   -1.6929   26.7263 F   0  0  0  0  0  0  0  0  0  0  0  0
    7.7963   -7.7906   17.9837 C   0  0  0  0  0  0  0  0  0  0  0  0
   10.5884   -3.0725   16.7902 O   0  0  0  0  0  0  0  0  0  0  0  0
   10.4323   -5.3494   20.3516 C   0  0  0  0  0  0  0  0  0  0  0  0
    7.1156   -7.5454   16.8218 C   0  0  0  0  0  0  0  0  0  0  0  0
   10.3885   -4.4388   19.2773 C   0  0  0  0  0  0  0  0  0  0  0  0
    4.5160   -9.3822   15.0841 C   0  0  0  0  0  0  0  0  0  0  0  0
  1  3  4  0
  1 24  4  0
  2  6  4  0
  2 15  4  0
  3  5  4  0
  3  6  4  0
  4 21  4  0
  4 29  4  0
  5 15  4  0
  5 28  1  0
  6 16  4  0
  7 18  4  0
  7 26  4  0
  8 18  1  0
  8 19  4  0
  8 22  4  0
  9 12  4  0
  9 19  4  0
 10 12  4  0
 10 22  4  0
 11 20  4  0
 11 21  4  0
 12 23  1  0
 13 20  4  0
 13 29  4  0
 14 17  4  0
 14 28  4  0
 15 25  2  0
 16 27  4  0
 17 18  4  0
 20 27  1  0
 24 27  4  0
 26 28  4  0
M  END
$$$$

 Created by Python create_sdf_string function

 29 33  0  0  0  0  0  0  0  0999 V2000
    8.8270   -7.0288   18.4251 C   0  0  0  0  0  0  0  0  0  0  0  0
    9.1576   -4.6236   15.8860 O   0  0  0  0  0  0  0  0  0  0  0  0
    9.1509   -5.9108   17.7177 C   0  0  0  0  0  0  0  0  0  0  0  0
    3.6373   -9.5349   16.0582 N   0  0  0  0  0  0  0  0  0  0  0  0
    9.9275   -4.8001   18.0438 N   0  0  0  0  0  0  0  0  0  0  0  0
    8.5908   -5.7425   16.4412 C   0  0  0  0  0  0  0  0  0  0  0  0
   10.5993   -4.8981   21.6068 C   0  0  0  0  0  0  0  0  0  0  0  0
   10.4258   -3.0106   23.0998 C   0  0  0  0  0  0  0  0  0  0  0  0
   10.2148   -3.4364   25.4200 C   0  0  0  0  0  0  0  0  0  0  0  0
    9.7853   -1.1840   24.4927 C   0  0  0  0  0  0  0  0  0  0  0  0
    5.0276   -8.5227   17.5352 C   0  0  0  0  0  0  0  0  0  0  0  0
    9.8187   -2.0895   25.5800 C   0  0  0  0  0  0  0  0  0  0  0  0
    5.6473   -8.7216   15.3158 C   0  0  0  0  0  0  0  0  0  0  0  0
   10.7581   -3.1233   19.4720 N   0  0  0  0  0  0  0  0  0  0  0  0
    9.9571   -4.0573   16.8866 C   0  0  0  0  0  0  0  0  0  0  0  0
    7.6213   -6.5618   16.0087 C   0  0  0  0  0  0  0  0  0  0  0  0
   10.8583   -2.6527   20.7222 C   0  0  0  0  0  0  0  0  0  0  0  0
   10.6412   -3.5089   21.7936 C   0  0  0  0  0  0  0  0  0  0  0  0
   10.4972   -3.8968   24.1589 C   0  0  0  0  0  0  0  0  0  0  0  0
    5.9260   -8.2736   16.5517 C   0  0  0  0  0  0  0  0  0  0  0  0
    3.8816   -9.1166   17.2493 C   0  0  0  0  0  0  0  0  0  0  0  0
   10.1297   -1.6575   23.2324 C   0  0  0  0  0  0  0  0  0  0  0  0
    9.4684   -1.6929   26.7263 F   0  0  0  0  0  0  0  0  0  0  0  0
    7.7963   -7.7906   17.9837 C   0  0  0  0  0  0  0  0  0  0  0  0
   10.5884   -3.0725   16.7902 O   0  0  0  0  0  0  0  0  0  0  0  0
   10.4323   -5.3494   20.3516 C   0  0  0  0  0  0  0  0  0  0  0  0
    7.1156   -7.5454   16.8218 C   0  0  0  0  0  0  0  0  0  0  0  0
   10.3885   -4.4388   19.2773 C   0  0  0  0  0  0  0  0  0  0  0  0
    4.5160   -9.3822   15.0841 C   0  0  0  0  0  0  0  0  0  0  0  0
  1  3  4  0
  1 24  4  0
  2  6  4  0
  2 15  4  0
  3  5  4  0
  3  6  4  0
  4 21  4  0
  4 29  4  0
  5 15  4  0
  5 28  1  0
  6 16  4  0
  7 18  4  0
  7 26  4  0
  8 18  1  0
  8 19  4  0
  8 22  4  0
  9 12  4  0
  9 19  4  0
 10 12  4  0
 10 22  4  0
 11 20  4  0
 11 21  4  0
 12 23  1  0
 13 20  4  0
 13 29  4  0
 14 17  4  0
 14 28  4  0
 15 25  2  0
 16 27  4  0
 17 18  4  0
 20 27  1  0
 24 27  4  0
 26 28  4  0
M  END
$$$$

 Created by Python create_sdf_string function

 29 33  0  0  0  0  0  0  0  0999 V2000
    8.8270   -7.0288   18.4251 C   0  0  0  0  0  0  0  0  0  0  0  0
    9.1576   -4.6236   15.8860 O   0  0  0  0  0  0  0  0  0  0  0  0
    9.1509   -5.9108   17.7177 C   0  0  0  0  0  0  0  0  0  0  0  0
    3.6373   -9.5349   16.0582 N   0  0  0  0  0  0  0  0  0  0  0  0
    9.9275   -4.8001   18.0438 N   0  0  0  0  0  0  0  0  0  0  0  0
    8.5908   -5.7425   16.4412 C   0  0  0  0  0  0  0  0  0  0  0  0
   10.5993   -4.8981   21.6068 C   0  0  0  0  0  0  0  0  0  0  0  0
   10.4258   -3.0106   23.0998 C   0  0  0  0  0  0  0  0  0  0  0  0
   10.2148   -3.4364   25.4200 C   0  0  0  0  0  0  0  0  0  0  0  0
    9.7853   -1.1840   24.4927 C   0  0  0  0  0  0  0  0  0  0  0  0
    5.0276   -8.5227   17.5352 C   0  0  0  0  0  0  0  0  0  0  0  0
    9.8187   -2.0895   25.5800 C   0  0  0  0  0  0  0  0  0  0  0  0
    5.6473   -8.7216   15.3158 C   0  0  0  0  0  0  0  0  0  0  0  0
   10.7581   -3.1233   19.4720 N   0  0  0  0  0  0  0  0  0  0  0  0
    9.9571   -4.0573   16.8866 C   0  0  0  0  0  0  0  0  0  0  0  0
    7.6213   -6.5618   16.0087 C   0  0  0  0  0  0  0  0  0  0  0  0
   10.8583   -2.6527   20.7222 C   0  0  0  0  0  0  0  0  0  0  0  0
   10.6412   -3.5089   21.7936 C   0  0  0  0  0  0  0  0  0  0  0  0
   10.4972   -3.8968   24.1589 C   0  0  0  0  0  0  0  0  0  0  0  0
    5.9260   -8.2736   16.5517 C   0  0  0  0  0  0  0  0  0  0  0  0
    3.8816   -9.1166   17.2493 C   0  0  0  0  0  0  0  0  0  0  0  0
   10.1297   -1.6575   23.2324 C   0  0  0  0  0  0  0  0  0  0  0  0
    9.4684   -1.6929   26.7263 F   0  0  0  0  0  0  0  0  0  0  0  0
    7.7963   -7.7906   17.9837 C   0  0  0  0  0  0  0  0  0  0  0  0
   10.5884   -3.0725   16.7902 O   0  0  0  0  0  0  0  0  0  0  0  0
   10.4323   -5.3494   20.3516 C   0  0  0  0  0  0  0  0  0  0  0  0
    7.1156   -7.5454   16.8218 C   0  0  0  0  0  0  0  0  0  0  0  0
   10.3885   -4.4388   19.2773 C   0  0  0  0  0  0  0  0  0  0  0  0
    4.5160   -9.3822   15.0841 C   0  0  0  0  0  0  0  0  0  0  0  0
  1  3  4  0
  1 24  4  0
  2  6  4  0
  2 15  4  0
  3  5  4  0
  3  6  4  0
  4 21  4  0
  4 29  4  0
  5 15  4  0
  5 28  1  0
  6 16  4  0
  7 18  4  0
  7 26  4  0
  8 18  1  0
  8 19  4  0
  8 22  4  0
  9 12  4  0
  9 19  4  0
 10 12  4  0
 10 22  4  0
 11 20  4  0
 11 21  4  0
 12 23  1  0
 13 20  4  0
 13 29  4  0
 14 17  4  0
 14 28  4  0
 15 25  2  0
 16 27  4  0
 17 18  4  0
 20 27  1  0
 24 27  4  0
 26 28  4  0
M  END
$$$$

 Created by Python create_sdf_string function

 29 33  0  0  0  0  0  0  0  0999 V2000
    8.8270   -7.0288   18.4251 C   0  0  0  0  0  0  0  0  0  0  0  0
    9.1576   -4.6236   15.8860 O   0  0  0  0  0  0  0  0  0  0  0  0
    9.1509   -5.9108   17.7177 C   0  0  0  0  0  0  0  0  0  0  0  0
    3.6373   -9.5349   16.0582 N   0  0  0  0  0  0  0  0  0  0  0  0
    9.9275   -4.8001   18.0438 N   0  0  0  0  0  0  0  0  0  0  0  0
    8.5908   -5.7425   16.4412 C   0  0  0  0  0  0  0  0  0  0  0  0
   10.5993   -4.8981   21.6068 C   0  0  0  0  0  0  0  0  0  0  0  0
   10.4258   -3.0106   23.0998 C   0  0  0  0  0  0  0  0  0  0  0  0
   10.2148   -3.4364   25.4200 C   0  0  0  0  0  0  0  0  0  0  0  0
    9.7853   -1.1840   24.4927 C   0  0  0  0  0  0  0  0  0  0  0  0
    5.0276   -8.5227   17.5352 C   0  0  0  0  0  0  0  0  0  0  0  0
    9.8187   -2.0895   25.5800 C   0  0  0  0  0  0  0  0  0  0  0  0
    5.6473   -8.7216   15.3158 C   0  0  0  0  0  0  0  0  0  0  0  0
   10.7581   -3.1233   19.4720 N   0  0  0  0  0  0  0  0  0  0  0  0
    9.9571   -4.0573   16.8866 C   0  0  0  0  0  0  0  0  0  0  0  0
    7.6213   -6.5618   16.0087 C   0  0  0  0  0  0  0  0  0  0  0  0
   10.8583   -2.6527   20.7222 C   0  0  0  0  0  0  0  0  0  0  0  0
   10.6412   -3.5089   21.7936 C   0  0  0  0  0  0  0  0  0  0  0  0
   10.4972   -3.8968   24.1589 C   0  0  0  0  0  0  0  0  0  0  0  0
    5.9260   -8.2736   16.5517 C   0  0  0  0  0  0  0  0  0  0  0  0
    3.8816   -9.1166   17.2493 C   0  0  0  0  0  0  0  0  0  0  0  0
   10.1297   -1.6575   23.2324 C   0  0  0  0  0  0  0  0  0  0  0  0
    9.4684   -1.6929   26.7263 F   0  0  0  0  0  0  0  0  0  0  0  0
    7.7963   -7.7906   17.9837 C   0  0  0  0  0  0  0  0  0  0  0  0
   10.5884   -3.0725   16.7902 O   0  0  0  0  0  0  0  0  0  0  0  0
   10.4323   -5.3494   20.3516 C   0  0  0  0  0  0  0  0  0  0  0  0
    7.1156   -7.5454   16.8218 C   0  0  0  0  0  0  0  0  0  0  0  0
   10.3885   -4.4388   19.2773 C   0  0  0  0  0  0  0  0  0  0  0  0
    4.5160   -9.3822   15.0841 C   0  0  0  0  0  0  0  0  0  0  0  0
  1  3  4  0
  1 24  4  0
  2  6  4  0
  2 15  4  0
  3  5  4  0
  3  6  4  0
  4 21  4  0
  4 29  4  0
  5 15  4  0
  5 28  1  0
  6 16  4  0
  7 18  4  0
  7 26  4  0
  8 18  1  0
  8 19  4  0
  8 22  4  0
  9 12  4  0
  9 19  4  0
 10 12  4  0
 10 22  4  0
 11 20  4  0
 11 21  4  0
 12 23  1  0
 13 20  4  0
 13 29  4  0
 14 17  4  0
 14 28  4  0
 15 25  2  0
 16 27  4  0
 17 18  4  0
 20 27  1  0
 24 27  4  0
 26 28  4  0
M  END
$$$$

 Created by Python create_sdf_string function

 29 33  0  0  0  0  0  0  0  0999 V2000
    8.8270   -7.0288   18.4251 C   0  0  0  0  0  0  0  0  0  0  0  0
    9.1576   -4.6236   15.8860 O   0  0  0  0  0  0  0  0  0  0  0  0
    9.1509   -5.9108   17.7177 C   0  0  0  0  0  0  0  0  0  0  0  0
    3.6373   -9.5349   16.0582 N   0  0  0  0  0  0  0  0  0  0  0  0
    9.9275   -4.8001   18.0438 N   0  0  0  0  0  0  0  0  0  0  0  0
    8.5908   -5.7425   16.4412 C   0  0  0  0  0  0  0  0  0  0  0  0
   10.5993   -4.8981   21.6068 C   0  0  0  0  0  0  0  0  0  0  0  0
   10.4258   -3.0106   23.0998 C   0  0  0  0  0  0  0  0  0  0  0  0
   10.2148   -3.4364   25.4200 C   0  0  0  0  0  0  0  0  0  0  0  0
    9.7853   -1.1840   24.4927 C   0  0  0  0  0  0  0  0  0  0  0  0
    5.0276   -8.5227   17.5352 C   0  0  0  0  0  0  0  0  0  0  0  0
    9.8187   -2.0895   25.5800 C   0  0  0  0  0  0  0  0  0  0  0  0
    5.6473   -8.7216   15.3158 C   0  0  0  0  0  0  0  0  0  0  0  0
   10.7581   -3.1233   19.4720 N   0  0  0  0  0  0  0  0  0  0  0  0
    9.9571   -4.0573   16.8866 C   0  0  0  0  0  0  0  0  0  0  0  0
    7.6213   -6.5618   16.0087 C   0  0  0  0  0  0  0  0  0  0  0  0
   10.8583   -2.6527   20.7222 C   0  0  0  0  0  0  0  0  0  0  0  0
   10.6412   -3.5089   21.7936 C   0  0  0  0  0  0  0  0  0  0  0  0
   10.4972   -3.8968   24.1589 C   0  0  0  0  0  0  0  0  0  0  0  0
    5.9260   -8.2736   16.5517 C   0  0  0  0  0  0  0  0  0  0  0  0
    3.8816   -9.1166   17.2493 C   0  0  0  0  0  0  0  0  0  0  0  0
   10.1297   -1.6575   23.2324 C   0  0  0  0  0  0  0  0  0  0  0  0
    9.4684   -1.6929   26.7263 F   0  0  0  0  0  0  0  0  0  0  0  0
    7.7963   -7.7906   17.9837 C   0  0  0  0  0  0  0  0  0  0  0  0
   10.5884   -3.0725   16.7902 O   0  0  0  0  0  0  0  0  0  0  0  0
   10.4323   -5.3494   20.3516 C   0  0  0  0  0  0  0  0  0  0  0  0
    7.1156   -7.5454   16.8218 C   0  0  0  0  0  0  0  0  0  0  0  0
   10.3885   -4.4388   19.2773 C   0  0  0  0  0  0  0  0  0  0  0  0
    4.5160   -9.3822   15.0841 C   0  0  0  0  0  0  0  0  0  0  0  0
  1  3  4  0
  1 24  4  0
  2  6  4  0
  2 15  4  0
  3  5  4  0
  3  6  4  0
  4 21  4  0
  4 29  4  0
  5 15  4  0
  5 28  1  0
  6 16  4  0
  7 18  4  0
  7 26  4  0
  8 18  1  0
  8 19  4  0
  8 22  4  0
  9 12  4  0
  9 19  4  0
 10 12  4  0
 10 22  4  0
 11 20  4  0
 11 21  4  0
 12 23  1  0
 13 20  4  0
 13 29  4  0
 14 17  4  0
 14 28  4  0
 15 25  2  0
 16 27  4  0
 17 18  4  0
 20 27  1  0
 24 27  4  0
 26 28  4  0
M  END
$$$$

 Created by Python create_sdf_string function

 29 33  0  0  0  0  0  0  0  0999 V2000
    8.8270   -7.0288   18.4251 C   0  0  0  0  0  0  0  0  0  0  0  0
    9.1576   -4.6236   15.8860 O   0  0  0  0  0  0  0  0  0  0  0  0
    9.1509   -5.9108   17.7177 C   0  0  0  0  0  0  0  0  0  0  0  0
    3.6373   -9.5349   16.0582 N   0  0  0  0  0  0  0  0  0  0  0  0
    9.9275   -4.8001   18.0438 N   0  0  0  0  0  0  0  0  0  0  0  0
    8.5908   -5.7425   16.4412 C   0  0  0  0  0  0  0  0  0  0  0  0
   10.5993   -4.8981   21.6068 C   0  0  0  0  0  0  0  0  0  0  0  0
   10.4258   -3.0106   23.0998 C   0  0  0  0  0  0  0  0  0  0  0  0
   10.2148   -3.4364   25.4200 C   0  0  0  0  0  0  0  0  0  0  0  0
    9.7853   -1.1840   24.4927 C   0  0  0  0  0  0  0  0  0  0  0  0
    5.0276   -8.5227   17.5352 C   0  0  0  0  0  0  0  0  0  0  0  0
    9.8187   -2.0895   25.5800 C   0  0  0  0  0  0  0  0  0  0  0  0
    5.6473   -8.7216   15.3158 C   0  0  0  0  0  0  0  0  0  0  0  0
   10.7581   -3.1233   19.4720 N   0  0  0  0  0  0  0  0  0  0  0  0
    9.9571   -4.0573   16.8866 C   0  0  0  0  0  0  0  0  0  0  0  0
    7.6213   -6.5618   16.0087 C   0  0  0  0  0  0  0  0  0  0  0  0
   10.8583   -2.6527   20.7222 C   0  0  0  0  0  0  0  0  0  0  0  0
   10.6412   -3.5089   21.7936 C   0  0  0  0  0  0  0  0  0  0  0  0
   10.4972   -3.8968   24.1589 C   0  0  0  0  0  0  0  0  0  0  0  0
    5.9260   -8.2736   16.5517 C   0  0  0  0  0  0  0  0  0  0  0  0
    3.8816   -9.1166   17.2493 C   0  0  0  0  0  0  0  0  0  0  0  0
   10.1297   -1.6575   23.2324 C   0  0  0  0  0  0  0  0  0  0  0  0
    9.4684   -1.6929   26.7263 F   0  0  0  0  0  0  0  0  0  0  0  0
    7.7963   -7.7906   17.9837 C   0  0  0  0  0  0  0  0  0  0  0  0
   10.5884   -3.0725   16.7902 O   0  0  0  0  0  0  0  0  0  0  0  0
   10.4323   -5.3494   20.3516 C   0  0  0  0  0  0  0  0  0  0  0  0
    7.1156   -7.5454   16.8218 C   0  0  0  0  0  0  0  0  0  0  0  0
   10.3885   -4.4388   19.2773 C   0  0  0  0  0  0  0  0  0  0  0  0
    4.5160   -9.3822   15.0841 C   0  0  0  0  0  0  0  0  0  0  0  0
  1  3  4  0
  1 24  4  0
  2  6  4  0
  2 15  4  0
  3  5  4  0
  3  6  4  0
  4 21  4  0
  4 29  4  0
  5 15  4  0
  5 28  1  0
  6 16  4  0
  7 18  4  0
  7 26  4  0
  8 18  1  0
  8 19  4  0
  8 22  4  0
  9 12  4  0
  9 19  4  0
 10 12  4  0
 10 22  4  0
 11 20  4  0
 11 21  4  0
 12 23  1  0
 13 20  4  0
 13 29  4  0
 14 17  4  0
 14 28  4  0
 15 25  2  0
 16 27  4  0
 17 18  4  0
 20 27  1  0
 24 27  4  0
 26 28  4  0
M  END
$$$$

 Created by Python create_sdf_string function

 29 33  0  0  0  0  0  0  0  0999 V2000
    8.8270   -7.0288   18.4251 C   0  0  0  0  0  0  0  0  0  0  0  0
    9.1576   -4.6236   15.8860 O   0  0  0  0  0  0  0  0  0  0  0  0
    9.1509   -5.9108   17.7177 C   0  0  0  0  0  0  0  0  0  0  0  0
    3.6373   -9.5349   16.0582 N   0  0  0  0  0  0  0  0  0  0  0  0
    9.9275   -4.8001   18.0438 N   0  0  0  0  0  0  0  0  0  0  0  0
    8.5908   -5.7425   16.4412 C   0  0  0  0  0  0  0  0  0  0  0  0
   10.5993   -4.8981   21.6068 C   0  0  0  0  0  0  0  0  0  0  0  0
   10.4258   -3.0106   23.0998 C   0  0  0  0  0  0  0  0  0  0  0  0
   10.2148   -3.4364   25.4200 C   0  0  0  0  0  0  0  0  0  0  0  0
    9.7853   -1.1840   24.4927 C   0  0  0  0  0  0  0  0  0  0  0  0
    5.0276   -8.5227   17.5352 C   0  0  0  0  0  0  0  0  0  0  0  0
    9.8187   -2.0895   25.5800 C   0  0  0  0  0  0  0  0  0  0  0  0
    5.6473   -8.7216   15.3158 C   0  0  0  0  0  0  0  0  0  0  0  0
   10.7581   -3.1233   19.4720 N   0  0  0  0  0  0  0  0  0  0  0  0
    9.9571   -4.0573   16.8866 C   0  0  0  0  0  0  0  0  0  0  0  0
    7.6213   -6.5618   16.0087 C   0  0  0  0  0  0  0  0  0  0  0  0
   10.8583   -2.6527   20.7222 C   0  0  0  0  0  0  0  0  0  0  0  0
   10.6412   -3.5089   21.7936 C   0  0  0  0  0  0  0  0  0  0  0  0
   10.4972   -3.8968   24.1589 C   0  0  0  0  0  0  0  0  0  0  0  0
    5.9260   -8.2736   16.5517 C   0  0  0  0  0  0  0  0  0  0  0  0
    3.8816   -9.1166   17.2493 C   0  0  0  0  0  0  0  0  0  0  0  0
   10.1297   -1.6575   23.2324 C   0  0  0  0  0  0  0  0  0  0  0  0
    9.4684   -1.6929   26.7263 F   0  0  0  0  0  0  0  0  0  0  0  0
    7.7963   -7.7906   17.9837 C   0  0  0  0  0  0  0  0  0  0  0  0
   10.5884   -3.0725   16.7902 O   0  0  0  0  0  0  0  0  0  0  0  0
   10.4323   -5.3494   20.3516 C   0  0  0  0  0  0  0  0  0  0  0  0
    7.1156   -7.5454   16.8218 C   0  0  0  0  0  0  0  0  0  0  0  0
   10.3885   -4.4388   19.2773 C   0  0  0  0  0  0  0  0  0  0  0  0
    4.5160   -9.3822   15.0841 C   0  0  0  0  0  0  0  0  0  0  0  0
  1  3  4  0
  1 24  4  0
  2  6  4  0
  2 15  4  0
  3  5  4  0
  3  6  4  0
  4 21  4  0
  4 29  4  0
  5 15  4  0
  5 28  1  0
  6 16  4  0
  7 18  4  0
  7 26  4  0
  8 18  1  0
  8 19  4  0
  8 22  4  0
  9 12  4  0
  9 19  4  0
 10 12  4  0
 10 22  4  0
 11 20  4  0
 11 21  4  0
 12 23  1  0
 13 20  4  0
 13 29  4  0
 14 17  4  0
 14 28  4  0
 15 25  2  0
 16 27  4  0
 17 18  4  0
 20 27  1  0
 24 27  4  0
 26 28  4  0
M  END
$$$$

 Created by Python create_sdf_string function

 29 33  0  0  0  0  0  0  0  0999 V2000
    8.8270   -7.0288   18.4251 C   0  0  0  0  0  0  0  0  0  0  0  0
    9.1576   -4.6236   15.8860 O   0  0  0  0  0  0  0  0  0  0  0  0
    9.1509   -5.9108   17.7177 C   0  0  0  0  0  0  0  0  0  0  0  0
    3.6373   -9.5349   16.0582 N   0  0  0  0  0  0  0  0  0  0  0  0
    9.9275   -4.8001   18.0438 N   0  0  0  0  0  0  0  0  0  0  0  0
    8.5908   -5.7425   16.4412 C   0  0  0  0  0  0  0  0  0  0  0  0
   10.5993   -4.8981   21.6068 C   0  0  0  0  0  0  0  0  0  0  0  0
   10.4258   -3.0106   23.0998 C   0  0  0  0  0  0  0  0  0  0  0  0
   10.2148   -3.4364   25.4200 C   0  0  0  0  0  0  0  0  0  0  0  0
    9.7853   -1.1840   24.4927 C   0  0  0  0  0  0  0  0  0  0  0  0
    5.0276   -8.5227   17.5352 C   0  0  0  0  0  0  0  0  0  0  0  0
    9.8187   -2.0895   25.5800 C   0  0  0  0  0  0  0  0  0  0  0  0
    5.6473   -8.7216   15.3158 C   0  0  0  0  0  0  0  0  0  0  0  0
   10.7581   -3.1233   19.4720 N   0  0  0  0  0  0  0  0  0  0  0  0
    9.9571   -4.0573   16.8866 C   0  0  0  0  0  0  0  0  0  0  0  0
    7.6213   -6.5618   16.0087 C   0  0  0  0  0  0  0  0  0  0  0  0
   10.8583   -2.6527   20.7222 C   0  0  0  0  0  0  0  0  0  0  0  0
   10.6412   -3.5089   21.7936 C   0  0  0  0  0  0  0  0  0  0  0  0
   10.4972   -3.8968   24.1589 C   0  0  0  0  0  0  0  0  0  0  0  0
    5.9260   -8.2736   16.5517 C   0  0  0  0  0  0  0  0  0  0  0  0
    3.8816   -9.1166   17.2493 C   0  0  0  0  0  0  0  0  0  0  0  0
   10.1297   -1.6575   23.2324 C   0  0  0  0  0  0  0  0  0  0  0  0
    9.4684   -1.6929   26.7263 F   0  0  0  0  0  0  0  0  0  0  0  0
    7.7963   -7.7906   17.9837 C   0  0  0  0  0  0  0  0  0  0  0  0
   10.5884   -3.0725   16.7902 O   0  0  0  0  0  0  0  0  0  0  0  0
   10.4323   -5.3494   20.3516 C   0  0  0  0  0  0  0  0  0  0  0  0
    7.1156   -7.5454   16.8218 C   0  0  0  0  0  0  0  0  0  0  0  0
   10.3885   -4.4388   19.2773 C   0  0  0  0  0  0  0  0  0  0  0  0
    4.5160   -9.3822   15.0841 C   0  0  0  0  0  0  0  0  0  0  0  0
  1  3  4  0
  1 24  4  0
  2  6  4  0
  2 15  4  0
  3  5  4  0
  3  6  4  0
  4 21  4  0
  4 29  4  0
  5 15  4  0
  5 28  1  0
  6 16  4  0
  7 18  4  0
  7 26  4  0
  8 18  1  0
  8 19  4  0
  8 22  4  0
  9 12  4  0
  9 19  4  0
 10 12  4  0
 10 22  4  0
 11 20  4  0
 11 21  4  0
 12 23  1  0
 13 20  4  0
 13 29  4  0
 14 17  4  0
 14 28  4  0
 15 25  2  0
 16 27  4  0
 17 18  4  0
 20 27  1  0
 24 27  4  0
 26 28  4  0
M  END
$$$$

 Created by Python create_sdf_string function

 29 33  0  0  0  0  0  0  0  0999 V2000
    8.8270   -7.0288   18.4251 C   0  0  0  0  0  0  0  0  0  0  0  0
    9.1576   -4.6236   15.8860 O   0  0  0  0  0  0  0  0  0  0  0  0
    9.1509   -5.9108   17.7177 C   0  0  0  0  0  0  0  0  0  0  0  0
    3.6373   -9.5349   16.0582 N   0  0  0  0  0  0  0  0  0  0  0  0
    9.9275   -4.8001   18.0438 N   0  0  0  0  0  0  0  0  0  0  0  0
    8.5908   -5.7425   16.4412 C   0  0  0  0  0  0  0  0  0  0  0  0
   10.5993   -4.8981   21.6068 C   0  0  0  0  0  0  0  0  0  0  0  0
   10.4258   -3.0106   23.0998 C   0  0  0  0  0  0  0  0  0  0  0  0
   10.2148   -3.4364   25.4200 C   0  0  0  0  0  0  0  0  0  0  0  0
    9.7853   -1.1840   24.4927 C   0  0  0  0  0  0  0  0  0  0  0  0
    5.0276   -8.5227   17.5352 C   0  0  0  0  0  0  0  0  0  0  0  0
    9.8187   -2.0895   25.5800 C   0  0  0  0  0  0  0  0  0  0  0  0
    5.6473   -8.7216   15.3158 C   0  0  0  0  0  0  0  0  0  0  0  0
   10.7581   -3.1233   19.4720 N   0  0  0  0  0  0  0  0  0  0  0  0
    9.9571   -4.0573   16.8866 C   0  0  0  0  0  0  0  0  0  0  0  0
    7.6213   -6.5618   16.0087 C   0  0  0  0  0  0  0  0  0  0  0  0
   10.8583   -2.6527   20.7222 C   0  0  0  0  0  0  0  0  0  0  0  0
   10.6412   -3.5089   21.7936 C   0  0  0  0  0  0  0  0  0  0  0  0
   10.4972   -3.8968   24.1589 C   0  0  0  0  0  0  0  0  0  0  0  0
    5.9260   -8.2736   16.5517 C   0  0  0  0  0  0  0  0  0  0  0  0
    3.8816   -9.1166   17.2493 C   0  0  0  0  0  0  0  0  0  0  0  0
   10.1297   -1.6575   23.2324 C   0  0  0  0  0  0  0  0  0  0  0  0
    9.4684   -1.6929   26.7263 F   0  0  0  0  0  0  0  0  0  0  0  0
    7.7963   -7.7906   17.9837 C   0  0  0  0  0  0  0  0  0  0  0  0
   10.5884   -3.0725   16.7902 O   0  0  0  0  0  0  0  0  0  0  0  0
   10.4323   -5.3494   20.3516 C   0  0  0  0  0  0  0  0  0  0  0  0
    7.1156   -7.5454   16.8218 C   0  0  0  0  0  0  0  0  0  0  0  0
   10.3885   -4.4388   19.2773 C   0  0  0  0  0  0  0  0  0  0  0  0
    4.5160   -9.3822   15.0841 C   0  0  0  0  0  0  0  0  0  0  0  0
  1  3  4  0
  1 24  4  0
  2  6  4  0
  2 15  4  0
  3  5  4  0
  3  6  4  0
  4 21  4  0
  4 29  4  0
  5 15  4  0
  5 28  1  0
  6 16  4  0
  7 18  4  0
  7 26  4  0
  8 18  1  0
  8 19  4  0
  8 22  4  0
  9 12  4  0
  9 19  4  0
 10 12  4  0
 10 22  4  0
 11 20  4  0
 11 21  4  0
 12 23  1  0
 13 20  4  0
 13 29  4  0
 14 17  4  0
 14 28  4  0
 15 25  2  0
 16 27  4  0
 17 18  4  0
 20 27  1  0
 24 27  4  0
 26 28  4  0
M  END
$$$$

 Created by Python create_sdf_string function

 29 33  0  0  0  0  0  0  0  0999 V2000
    8.8270   -7.0288   18.4251 C   0  0  0  0  0  0  0  0  0  0  0  0
    9.1576   -4.6236   15.8860 O   0  0  0  0  0  0  0  0  0  0  0  0
    9.1509   -5.9108   17.7177 C   0  0  0  0  0  0  0  0  0  0  0  0
    3.6373   -9.5349   16.0582 N   0  0  0  0  0  0  0  0  0  0  0  0
    9.9275   -4.8001   18.0438 N   0  0  0  0  0  0  0  0  0  0  0  0
    8.5908   -5.7425   16.4412 C   0  0  0  0  0  0  0  0  0  0  0  0
   10.5993   -4.8981   21.6068 C   0  0  0  0  0  0  0  0  0  0  0  0
   10.4258   -3.0106   23.0998 C   0  0  0  0  0  0  0  0  0  0  0  0
   10.2148   -3.4364   25.4200 C   0  0  0  0  0  0  0  0  0  0  0  0
    9.7853   -1.1840   24.4927 C   0  0  0  0  0  0  0  0  0  0  0  0
    5.0276   -8.5227   17.5352 C   0  0  0  0  0  0  0  0  0  0  0  0
    9.8187   -2.0895   25.5800 C   0  0  0  0  0  0  0  0  0  0  0  0
    5.6473   -8.7216   15.3158 C   0  0  0  0  0  0  0  0  0  0  0  0
   10.7581   -3.1233   19.4720 N   0  0  0  0  0  0  0  0  0  0  0  0
    9.9571   -4.0573   16.8866 C   0  0  0  0  0  0  0  0  0  0  0  0
    7.6213   -6.5618   16.0087 C   0  0  0  0  0  0  0  0  0  0  0  0
   10.8583   -2.6527   20.7222 C   0  0  0  0  0  0  0  0  0  0  0  0
   10.6412   -3.5089   21.7936 C   0  0  0  0  0  0  0  0  0  0  0  0
   10.4972   -3.8968   24.1589 C   0  0  0  0  0  0  0  0  0  0  0  0
    5.9260   -8.2736   16.5517 C   0  0  0  0  0  0  0  0  0  0  0  0
    3.8816   -9.1166   17.2493 C   0  0  0  0  0  0  0  0  0  0  0  0
   10.1297   -1.6575   23.2324 C   0  0  0  0  0  0  0  0  0  0  0  0
    9.4684   -1.6929   26.7263 F   0  0  0  0  0  0  0  0  0  0  0  0
    7.7963   -7.7906   17.9837 C   0  0  0  0  0  0  0  0  0  0  0  0
   10.5884   -3.0725   16.7902 O   0  0  0  0  0  0  0  0  0  0  0  0
   10.4323   -5.3494   20.3516 C   0  0  0  0  0  0  0  0  0  0  0  0
    7.1156   -7.5454   16.8218 C   0  0  0  0  0  0  0  0  0  0  0  0
   10.3885   -4.4388   19.2773 C   0  0  0  0  0  0  0  0  0  0  0  0
    4.5160   -9.3822   15.0841 C   0  0  0  0  0  0  0  0  0  0  0  0
  1  3  4  0
  1 24  4  0
  2  6  4  0
  2 15  4  0
  3  5  4  0
  3  6  4  0
  4 21  4  0
  4 29  4  0
  5 15  4  0
  5 28  1  0
  6 16  4  0
  7 18  4  0
  7 26  4  0
  8 18  1  0
  8 19  4  0
  8 22  4  0
  9 12  4  0
  9 19  4  0
 10 12  4  0
 10 22  4  0
 11 20  4  0
 11 21  4  0
 12 23  1  0
 13 20  4  0
 13 29  4  0
 14 17  4  0
 14 28  4  0
 15 25  2  0
 16 27  4  0
 17 18  4  0
 20 27  1  0
 24 27  4  0
 26 28  4  0
M  END
$$$$

 Created by Python create_sdf_string function

 29 33  0  0  0  0  0  0  0  0999 V2000
    8.8270   -7.0288   18.4251 C   0  0  0  0  0  0  0  0  0  0  0  0
    9.1576   -4.6236   15.8860 O   0  0  0  0  0  0  0  0  0  0  0  0
    9.1509   -5.9108   17.7177 C   0  0  0  0  0  0  0  0  0  0  0  0
    3.6373   -9.5349   16.0582 N   0  0  0  0  0  0  0  0  0  0  0  0
    9.9275   -4.8001   18.0438 N   0  0  0  0  0  0  0  0  0  0  0  0
    8.5908   -5.7425   16.4412 C   0  0  0  0  0  0  0  0  0  0  0  0
   10.5993   -4.8981   21.6068 C   0  0  0  0  0  0  0  0  0  0  0  0
   10.4258   -3.0106   23.0998 C   0  0  0  0  0  0  0  0  0  0  0  0
   10.2148   -3.4364   25.4200 C   0  0  0  0  0  0  0  0  0  0  0  0
    9.7853   -1.1840   24.4927 C   0  0  0  0  0  0  0  0  0  0  0  0
    5.0276   -8.5227   17.5352 C   0  0  0  0  0  0  0  0  0  0  0  0
    9.8187   -2.0895   25.5800 C   0  0  0  0  0  0  0  0  0  0  0  0
    5.6473   -8.7216   15.3158 C   0  0  0  0  0  0  0  0  0  0  0  0
   10.7581   -3.1233   19.4720 N   0  0  0  0  0  0  0  0  0  0  0  0
    9.9571   -4.0573   16.8866 C   0  0  0  0  0  0  0  0  0  0  0  0
    7.6213   -6.5618   16.0087 C   0  0  0  0  0  0  0  0  0  0  0  0
   10.8583   -2.6527   20.7222 C   0  0  0  0  0  0  0  0  0  0  0  0
   10.6412   -3.5089   21.7936 C   0  0  0  0  0  0  0  0  0  0  0  0
   10.4972   -3.8968   24.1589 C   0  0  0  0  0  0  0  0  0  0  0  0
    5.9260   -8.2736   16.5517 C   0  0  0  0  0  0  0  0  0  0  0  0
    3.8816   -9.1166   17.2493 C   0  0  0  0  0  0  0  0  0  0  0  0
   10.1297   -1.6575   23.2324 C   0  0  0  0  0  0  0  0  0  0  0  0
    9.4684   -1.6929   26.7263 F   0  0  0  0  0  0  0  0  0  0  0  0
    7.7963   -7.7906   17.9837 C   0  0  0  0  0  0  0  0  0  0  0  0
   10.5884   -3.0725   16.7902 O   0  0  0  0  0  0  0  0  0  0  0  0
   10.4323   -5.3494   20.3516 C   0  0  0  0  0  0  0  0  0  0  0  0
    7.1156   -7.5454   16.8218 C   0  0  0  0  0  0  0  0  0  0  0  0
   10.3885   -4.4388   19.2773 C   0  0  0  0  0  0  0  0  0  0  0  0
    4.5160   -9.3822   15.0841 C   0  0  0  0  0  0  0  0  0  0  0  0
  1  3  4  0
  1 24  4  0
  2  6  4  0
  2 15  4  0
  3  5  4  0
  3  6  4  0
  4 21  4  0
  4 29  4  0
  5 15  4  0
  5 28  1  0
  6 16  4  0
  7 18  4  0
  7 26  4  0
  8 18  1  0
  8 19  4  0
  8 22  4  0
  9 12  4  0
  9 19  4  0
 10 12  4  0
 10 22  4  0
 11 20  4  0
 11 21  4  0
 12 23  1  0
 13 20  4  0
 13 29  4  0
 14 17  4  0
 14 28  4  0
 15 25  2  0
 16 27  4  0
 17 18  4  0
 20 27  1  0
 24 27  4  0
 26 28  4  0
M  END
$$$$

 Created by Python create_sdf_string function

 29 33  0  0  0  0  0  0  0  0999 V2000
    8.8270   -7.0288   18.4251 C   0  0  0  0  0  0  0  0  0  0  0  0
    9.1576   -4.6236   15.8860 O   0  0  0  0  0  0  0  0  0  0  0  0
    9.1509   -5.9108   17.7177 C   0  0  0  0  0  0  0  0  0  0  0  0
    3.6373   -9.5349   16.0582 N   0  0  0  0  0  0  0  0  0  0  0  0
    9.9275   -4.8001   18.0438 N   0  0  0  0  0  0  0  0  0  0  0  0
    8.5908   -5.7425   16.4412 C   0  0  0  0  0  0  0  0  0  0  0  0
   10.5993   -4.8981   21.6068 C   0  0  0  0  0  0  0  0  0  0  0  0
   10.4258   -3.0106   23.0998 C   0  0  0  0  0  0  0  0  0  0  0  0
   10.2148   -3.4364   25.4200 C   0  0  0  0  0  0  0  0  0  0  0  0
    9.7853   -1.1840   24.4927 C   0  0  0  0  0  0  0  0  0  0  0  0
    5.0276   -8.5227   17.5352 C   0  0  0  0  0  0  0  0  0  0  0  0
    9.8187   -2.0895   25.5800 C   0  0  0  0  0  0  0  0  0  0  0  0
    5.6473   -8.7216   15.3158 C   0  0  0  0  0  0  0  0  0  0  0  0
   10.7581   -3.1233   19.4720 N   0  0  0  0  0  0  0  0  0  0  0  0
    9.9571   -4.0573   16.8866 C   0  0  0  0  0  0  0  0  0  0  0  0
    7.6213   -6.5618   16.0087 C   0  0  0  0  0  0  0  0  0  0  0  0
   10.8583   -2.6527   20.7222 C   0  0  0  0  0  0  0  0  0  0  0  0
   10.6412   -3.5089   21.7936 C   0  0  0  0  0  0  0  0  0  0  0  0
   10.4972   -3.8968   24.1589 C   0  0  0  0  0  0  0  0  0  0  0  0
    5.9260   -8.2736   16.5517 C   0  0  0  0  0  0  0  0  0  0  0  0
    3.8816   -9.1166   17.2493 C   0  0  0  0  0  0  0  0  0  0  0  0
   10.1297   -1.6575   23.2324 C   0  0  0  0  0  0  0  0  0  0  0  0
    9.4684   -1.6929   26.7263 F   0  0  0  0  0  0  0  0  0  0  0  0
    7.7963   -7.7906   17.9837 C   0  0  0  0  0  0  0  0  0  0  0  0
   10.5884   -3.0725   16.7902 O   0  0  0  0  0  0  0  0  0  0  0  0
   10.4323   -5.3494   20.3516 C   0  0  0  0  0  0  0  0  0  0  0  0
    7.1156   -7.5454   16.8218 C   0  0  0  0  0  0  0  0  0  0  0  0
   10.3885   -4.4388   19.2773 C   0  0  0  0  0  0  0  0  0  0  0  0
    4.5160   -9.3822   15.0841 C   0  0  0  0  0  0  0  0  0  0  0  0
  1  3  4  0
  1 24  4  0
  2  6  4  0
  2 15  4  0
  3  5  4  0
  3  6  4  0
  4 21  4  0
  4 29  4  0
  5 15  4  0
  5 28  1  0
  6 16  4  0
  7 18  4  0
  7 26  4  0
  8 18  1  0
  8 19  4  0
  8 22  4  0
  9 12  4  0
  9 19  4  0
 10 12  4  0
 10 22  4  0
 11 20  4  0
 11 21  4  0
 12 23  1  0
 13 20  4  0
 13 29  4  0
 14 17  4  0
 14 28  4  0
 15 25  2  0
 16 27  4  0
 17 18  4  0
 20 27  1  0
 24 27  4  0
 26 28  4  0
M  END
$$$$

 Created by Python create_sdf_string function

 29 33  0  0  0  0  0  0  0  0999 V2000
    8.8270   -7.0288   18.4251 C   0  0  0  0  0  0  0  0  0  0  0  0
    9.1576   -4.6236   15.8860 O   0  0  0  0  0  0  0  0  0  0  0  0
    9.1509   -5.9108   17.7177 C   0  0  0  0  0  0  0  0  0  0  0  0
    3.6373   -9.5349   16.0582 N   0  0  0  0  0  0  0  0  0  0  0  0
    9.9275   -4.8001   18.0438 N   0  0  0  0  0  0  0  0  0  0  0  0
    8.5908   -5.7425   16.4412 C   0  0  0  0  0  0  0  0  0  0  0  0
   10.5993   -4.8981   21.6068 C   0  0  0  0  0  0  0  0  0  0  0  0
   10.4258   -3.0106   23.0998 C   0  0  0  0  0  0  0  0  0  0  0  0
   10.2148   -3.4364   25.4200 C   0  0  0  0  0  0  0  0  0  0  0  0
    9.7853   -1.1840   24.4927 C   0  0  0  0  0  0  0  0  0  0  0  0
    5.0276   -8.5227   17.5352 C   0  0  0  0  0  0  0  0  0  0  0  0
    9.8187   -2.0895   25.5800 C   0  0  0  0  0  0  0  0  0  0  0  0
    5.6473   -8.7216   15.3158 C   0  0  0  0  0  0  0  0  0  0  0  0
   10.7581   -3.1233   19.4720 N   0  0  0  0  0  0  0  0  0  0  0  0
    9.9571   -4.0573   16.8866 C   0  0  0  0  0  0  0  0  0  0  0  0
    7.6213   -6.5618   16.0087 C   0  0  0  0  0  0  0  0  0  0  0  0
   10.8583   -2.6527   20.7222 C   0  0  0  0  0  0  0  0  0  0  0  0
   10.6412   -3.5089   21.7936 C   0  0  0  0  0  0  0  0  0  0  0  0
   10.4972   -3.8968   24.1589 C   0  0  0  0  0  0  0  0  0  0  0  0
    5.9260   -8.2736   16.5517 C   0  0  0  0  0  0  0  0  0  0  0  0
    3.8816   -9.1166   17.2493 C   0  0  0  0  0  0  0  0  0  0  0  0
   10.1297   -1.6575   23.2324 C   0  0  0  0  0  0  0  0  0  0  0  0
    9.4684   -1.6929   26.7263 F   0  0  0  0  0  0  0  0  0  0  0  0
    7.7963   -7.7906   17.9837 C   0  0  0  0  0  0  0  0  0  0  0  0
   10.5884   -3.0725   16.7902 O   0  0  0  0  0  0  0  0  0  0  0  0
   10.4323   -5.3494   20.3516 C   0  0  0  0  0  0  0  0  0  0  0  0
    7.1156   -7.5454   16.8218 C   0  0  0  0  0  0  0  0  0  0  0  0
   10.3885   -4.4388   19.2773 C   0  0  0  0  0  0  0  0  0  0  0  0
    4.5160   -9.3822   15.0841 C   0  0  0  0  0  0  0  0  0  0  0  0
  1  3  4  0
  1 24  4  0
  2  6  4  0
  2 15  4  0
  3  5  4  0
  3  6  4  0
  4 21  4  0
  4 29  4  0
  5 15  4  0
  5 28  1  0
  6 16  4  0
  7 18  4  0
  7 26  4  0
  8 18  1  0
  8 19  4  0
  8 22  4  0
  9 12  4  0
  9 19  4  0
 10 12  4  0
 10 22  4  0
 11 20  4  0
 11 21  4  0
 12 23  1  0
 13 20  4  0
 13 29  4  0
 14 17  4  0
 14 28  4  0
 15 25  2  0
 16 27  4  0
 17 18  4  0
 20 27  1  0
 24 27  4  0
 26 28  4  0
M  END
$$$$

 Created by Python create_sdf_string function

 29 33  0  0  0  0  0  0  0  0999 V2000
    8.8270   -7.0288   18.4251 C   0  0  0  0  0  0  0  0  0  0  0  0
    9.1576   -4.6236   15.8860 O   0  0  0  0  0  0  0  0  0  0  0  0
    9.1509   -5.9108   17.7177 C   0  0  0  0  0  0  0  0  0  0  0  0
    3.6373   -9.5349   16.0582 N   0  0  0  0  0  0  0  0  0  0  0  0
    9.9275   -4.8001   18.0438 N   0  0  0  0  0  0  0  0  0  0  0  0
    8.5908   -5.7425   16.4412 C   0  0  0  0  0  0  0  0  0  0  0  0
   10.5993   -4.8981   21.6068 C   0  0  0  0  0  0  0  0  0  0  0  0
   10.4258   -3.0106   23.0998 C   0  0  0  0  0  0  0  0  0  0  0  0
   10.2148   -3.4364   25.4200 C   0  0  0  0  0  0  0  0  0  0  0  0
    9.7853   -1.1840   24.4927 C   0  0  0  0  0  0  0  0  0  0  0  0
    5.0276   -8.5227   17.5352 C   0  0  0  0  0  0  0  0  0  0  0  0
    9.8187   -2.0895   25.5800 C   0  0  0  0  0  0  0  0  0  0  0  0
    5.6473   -8.7216   15.3158 C   0  0  0  0  0  0  0  0  0  0  0  0
   10.7581   -3.1233   19.4720 N   0  0  0  0  0  0  0  0  0  0  0  0
    9.9571   -4.0573   16.8866 C   0  0  0  0  0  0  0  0  0  0  0  0
    7.6213   -6.5618   16.0087 C   0  0  0  0  0  0  0  0  0  0  0  0
   10.8583   -2.6527   20.7222 C   0  0  0  0  0  0  0  0  0  0  0  0
   10.6412   -3.5089   21.7936 C   0  0  0  0  0  0  0  0  0  0  0  0
   10.4972   -3.8968   24.1589 C   0  0  0  0  0  0  0  0  0  0  0  0
    5.9260   -8.2736   16.5517 C   0  0  0  0  0  0  0  0  0  0  0  0
    3.8816   -9.1166   17.2493 C   0  0  0  0  0  0  0  0  0  0  0  0
   10.1297   -1.6575   23.2324 C   0  0  0  0  0  0  0  0  0  0  0  0
    9.4684   -1.6929   26.7263 F   0  0  0  0  0  0  0  0  0  0  0  0
    7.7963   -7.7906   17.9837 C   0  0  0  0  0  0  0  0  0  0  0  0
   10.5884   -3.0725   16.7902 O   0  0  0  0  0  0  0  0  0  0  0  0
   10.4323   -5.3494   20.3516 C   0  0  0  0  0  0  0  0  0  0  0  0
    7.1156   -7.5454   16.8218 C   0  0  0  0  0  0  0  0  0  0  0  0
   10.3885   -4.4388   19.2773 C   0  0  0  0  0  0  0  0  0  0  0  0
    4.5160   -9.3822   15.0841 C   0  0  0  0  0  0  0  0  0  0  0  0
  1  3  4  0
  1 24  4  0
  2  6  4  0
  2 15  4  0
  3  5  4  0
  3  6  4  0
  4 21  4  0
  4 29  4  0
  5 15  4  0
  5 28  1  0
  6 16  4  0
  7 18  4  0
  7 26  4  0
  8 18  1  0
  8 19  4  0
  8 22  4  0
  9 12  4  0
  9 19  4  0
 10 12  4  0
 10 22  4  0
 11 20  4  0
 11 21  4  0
 12 23  1  0
 13 20  4  0
 13 29  4  0
 14 17  4  0
 14 28  4  0
 15 25  2  0
 16 27  4  0
 17 18  4  0
 20 27  1  0
 24 27  4  0
 26 28  4  0
M  END
$$$$

 Created by Python create_sdf_string function

 29 33  0  0  0  0  0  0  0  0999 V2000
    8.8270   -7.0288   18.4251 C   0  0  0  0  0  0  0  0  0  0  0  0
    9.1576   -4.6236   15.8860 O   0  0  0  0  0  0  0  0  0  0  0  0
    9.1509   -5.9108   17.7177 C   0  0  0  0  0  0  0  0  0  0  0  0
    3.6373   -9.5349   16.0582 N   0  0  0  0  0  0  0  0  0  0  0  0
    9.9275   -4.8001   18.0438 N   0  0  0  0  0  0  0  0  0  0  0  0
    8.5908   -5.7425   16.4412 C   0  0  0  0  0  0  0  0  0  0  0  0
   10.5993   -4.8981   21.6068 C   0  0  0  0  0  0  0  0  0  0  0  0
   10.4258   -3.0106   23.0998 C   0  0  0  0  0  0  0  0  0  0  0  0
   10.2148   -3.4364   25.4200 C   0  0  0  0  0  0  0  0  0  0  0  0
    9.7853   -1.1840   24.4927 C   0  0  0  0  0  0  0  0  0  0  0  0
    5.0276   -8.5227   17.5352 C   0  0  0  0  0  0  0  0  0  0  0  0
    9.8187   -2.0895   25.5800 C   0  0  0  0  0  0  0  0  0  0  0  0
    5.6473   -8.7216   15.3158 C   0  0  0  0  0  0  0  0  0  0  0  0
   10.7581   -3.1233   19.4720 N   0  0  0  0  0  0  0  0  0  0  0  0
    9.9571   -4.0573   16.8866 C   0  0  0  0  0  0  0  0  0  0  0  0
    7.6213   -6.5618   16.0087 C   0  0  0  0  0  0  0  0  0  0  0  0
   10.8583   -2.6527   20.7222 C   0  0  0  0  0  0  0  0  0  0  0  0
   10.6412   -3.5089   21.7936 C   0  0  0  0  0  0  0  0  0  0  0  0
   10.4972   -3.8968   24.1589 C   0  0  0  0  0  0  0  0  0  0  0  0
    5.9260   -8.2736   16.5517 C   0  0  0  0  0  0  0  0  0  0  0  0
    3.8816   -9.1166   17.2493 C   0  0  0  0  0  0  0  0  0  0  0  0
   10.1297   -1.6575   23.2324 C   0  0  0  0  0  0  0  0  0  0  0  0
    9.4684   -1.6929   26.7263 F   0  0  0  0  0  0  0  0  0  0  0  0
    7.7963   -7.7906   17.9837 C   0  0  0  0  0  0  0  0  0  0  0  0
   10.5884   -3.0725   16.7902 O   0  0  0  0  0  0  0  0  0  0  0  0
   10.4323   -5.3494   20.3516 C   0  0  0  0  0  0  0  0  0  0  0  0
    7.1156   -7.5454   16.8218 C   0  0  0  0  0  0  0  0  0  0  0  0
   10.3885   -4.4388   19.2773 C   0  0  0  0  0  0  0  0  0  0  0  0
    4.5160   -9.3822   15.0841 C   0  0  0  0  0  0  0  0  0  0  0  0
  1  3  4  0
  1 24  4  0
  2  6  4  0
  2 15  4  0
  3  5  4  0
  3  6  4  0
  4 21  4  0
  4 29  4  0
  5 15  4  0
  5 28  1  0
  6 16  4  0
  7 18  4  0
  7 26  4  0
  8 18  1  0
  8 19  4  0
  8 22  4  0
  9 12  4  0
  9 19  4  0
 10 12  4  0
 10 22  4  0
 11 20  4  0
 11 21  4  0
 12 23  1  0
 13 20  4  0
 13 29  4  0
 14 17  4  0
 14 28  4  0
 15 25  2  0
 16 27  4  0
 17 18  4  0
 20 27  1  0
 24 27  4  0
 26 28  4  0
M  END
$$$$

 Created by Python create_sdf_string function

 29 33  0  0  0  0  0  0  0  0999 V2000
    8.8270   -7.0288   18.4251 C   0  0  0  0  0  0  0  0  0  0  0  0
    9.1576   -4.6236   15.8860 O   0  0  0  0  0  0  0  0  0  0  0  0
    9.1509   -5.9108   17.7177 C   0  0  0  0  0  0  0  0  0  0  0  0
    3.6373   -9.5349   16.0582 N   0  0  0  0  0  0  0  0  0  0  0  0
    9.9275   -4.8001   18.0438 N   0  0  0  0  0  0  0  0  0  0  0  0
    8.5908   -5.7425   16.4412 C   0  0  0  0  0  0  0  0  0  0  0  0
   10.5993   -4.8981   21.6068 C   0  0  0  0  0  0  0  0  0  0  0  0
   10.4258   -3.0106   23.0998 C   0  0  0  0  0  0  0  0  0  0  0  0
   10.2148   -3.4364   25.4200 C   0  0  0  0  0  0  0  0  0  0  0  0
    9.7853   -1.1840   24.4927 C   0  0  0  0  0  0  0  0  0  0  0  0
    5.0276   -8.5227   17.5352 C   0  0  0  0  0  0  0  0  0  0  0  0
    9.8187   -2.0895   25.5800 C   0  0  0  0  0  0  0  0  0  0  0  0
    5.6473   -8.7216   15.3158 C   0  0  0  0  0  0  0  0  0  0  0  0
   10.7581   -3.1233   19.4720 N   0  0  0  0  0  0  0  0  0  0  0  0
    9.9571   -4.0573   16.8866 C   0  0  0  0  0  0  0  0  0  0  0  0
    7.6213   -6.5618   16.0087 C   0  0  0  0  0  0  0  0  0  0  0  0
   10.8583   -2.6527   20.7222 C   0  0  0  0  0  0  0  0  0  0  0  0
   10.6412   -3.5089   21.7936 C   0  0  0  0  0  0  0  0  0  0  0  0
   10.4972   -3.8968   24.1589 C   0  0  0  0  0  0  0  0  0  0  0  0
    5.9260   -8.2736   16.5517 C   0  0  0  0  0  0  0  0  0  0  0  0
    3.8816   -9.1166   17.2493 C   0  0  0  0  0  0  0  0  0  0  0  0
   10.1297   -1.6575   23.2324 C   0  0  0  0  0  0  0  0  0  0  0  0
    9.4684   -1.6929   26.7263 F   0  0  0  0  0  0  0  0  0  0  0  0
    7.7963   -7.7906   17.9837 C   0  0  0  0  0  0  0  0  0  0  0  0
   10.5884   -3.0725   16.7902 O   0  0  0  0  0  0  0  0  0  0  0  0
   10.4323   -5.3494   20.3516 C   0  0  0  0  0  0  0  0  0  0  0  0
    7.1156   -7.5454   16.8218 C   0  0  0  0  0  0  0  0  0  0  0  0
   10.3885   -4.4388   19.2773 C   0  0  0  0  0  0  0  0  0  0  0  0
    4.5160   -9.3822   15.0841 C   0  0  0  0  0  0  0  0  0  0  0  0
  1  3  4  0
  1 24  4  0
  2  6  4  0
  2 15  4  0
  3  5  4  0
  3  6  4  0
  4 21  4  0
  4 29  4  0
  5 15  4  0
  5 28  1  0
  6 16  4  0
  7 18  4  0
  7 26  4  0
  8 18  1  0
  8 19  4  0
  8 22  4  0
  9 12  4  0
  9 19  4  0
 10 12  4  0
 10 22  4  0
 11 20  4  0
 11 21  4  0
 12 23  1  0
 13 20  4  0
 13 29  4  0
 14 17  4  0
 14 28  4  0
 15 25  2  0
 16 27  4  0
 17 18  4  0
 20 27  1  0
 24 27  4  0
 26 28  4  0
M  END
$$$$

 Created by Python create_sdf_string function

 29 33  0  0  0  0  0  0  0  0999 V2000
    8.8270   -7.0288   18.4251 C   0  0  0  0  0  0  0  0  0  0  0  0
    9.1576   -4.6236   15.8860 O   0  0  0  0  0  0  0  0  0  0  0  0
    9.1509   -5.9108   17.7177 C   0  0  0  0  0  0  0  0  0  0  0  0
    3.6373   -9.5349   16.0582 N   0  0  0  0  0  0  0  0  0  0  0  0
    9.9275   -4.8001   18.0438 N   0  0  0  0  0  0  0  0  0  0  0  0
    8.5908   -5.7425   16.4412 C   0  0  0  0  0  0  0  0  0  0  0  0
   10.5993   -4.8981   21.6068 C   0  0  0  0  0  0  0  0  0  0  0  0
   10.4258   -3.0106   23.0998 C   0  0  0  0  0  0  0  0  0  0  0  0
   10.2148   -3.4364   25.4200 C   0  0  0  0  0  0  0  0  0  0  0  0
    9.7853   -1.1840   24.4927 C   0  0  0  0  0  0  0  0  0  0  0  0
    5.0276   -8.5227   17.5352 C   0  0  0  0  0  0  0  0  0  0  0  0
    9.8187   -2.0895   25.5800 C   0  0  0  0  0  0  0  0  0  0  0  0
    5.6473   -8.7216   15.3158 C   0  0  0  0  0  0  0  0  0  0  0  0
   10.7581   -3.1233   19.4720 N   0  0  0  0  0  0  0  0  0  0  0  0
    9.9571   -4.0573   16.8866 C   0  0  0  0  0  0  0  0  0  0  0  0
    7.6213   -6.5618   16.0087 C   0  0  0  0  0  0  0  0  0  0  0  0
   10.8583   -2.6527   20.7222 C   0  0  0  0  0  0  0  0  0  0  0  0
   10.6412   -3.5089   21.7936 C   0  0  0  0  0  0  0  0  0  0  0  0
   10.4972   -3.8968   24.1589 C   0  0  0  0  0  0  0  0  0  0  0  0
    5.9260   -8.2736   16.5517 C   0  0  0  0  0  0  0  0  0  0  0  0
    3.8816   -9.1166   17.2493 C   0  0  0  0  0  0  0  0  0  0  0  0
   10.1297   -1.6575   23.2324 C   0  0  0  0  0  0  0  0  0  0  0  0
    9.4684   -1.6929   26.7263 F   0  0  0  0  0  0  0  0  0  0  0  0
    7.7963   -7.7906   17.9837 C   0  0  0  0  0  0  0  0  0  0  0  0
   10.5884   -3.0725   16.7902 O   0  0  0  0  0  0  0  0  0  0  0  0
   10.4323   -5.3494   20.3516 C   0  0  0  0  0  0  0  0  0  0  0  0
    7.1156   -7.5454   16.8218 C   0  0  0  0  0  0  0  0  0  0  0  0
   10.3885   -4.4388   19.2773 C   0  0  0  0  0  0  0  0  0  0  0  0
    4.5160   -9.3822   15.0841 C   0  0  0  0  0  0  0  0  0  0  0  0
  1  3  4  0
  1 24  4  0
  2  6  4  0
  2 15  4  0
  3  5  4  0
  3  6  4  0
  4 21  4  0
  4 29  4  0
  5 15  4  0
  5 28  1  0
  6 16  4  0
  7 18  4  0
  7 26  4  0
  8 18  1  0
  8 19  4  0
  8 22  4  0
  9 12  4  0
  9 19  4  0
 10 12  4  0
 10 22  4  0
 11 20  4  0
 11 21  4  0
 12 23  1  0
 13 20  4  0
 13 29  4  0
 14 17  4  0
 14 28  4  0
 15 25  2  0
 16 27  4  0
 17 18  4  0
 20 27  1  0
 24 27  4  0
 26 28  4  0
M  END
$$$$

 Created by Python create_sdf_string function

 29 33  0  0  0  0  0  0  0  0999 V2000
    8.8270   -7.0288   18.4251 C   0  0  0  0  0  0  0  0  0  0  0  0
    9.1576   -4.6236   15.8860 O   0  0  0  0  0  0  0  0  0  0  0  0
    9.1509   -5.9108   17.7177 C   0  0  0  0  0  0  0  0  0  0  0  0
    3.6373   -9.5349   16.0582 N   0  0  0  0  0  0  0  0  0  0  0  0
    9.9275   -4.8001   18.0438 N   0  0  0  0  0  0  0  0  0  0  0  0
    8.5908   -5.7425   16.4412 C   0  0  0  0  0  0  0  0  0  0  0  0
   10.5993   -4.8981   21.6068 C   0  0  0  0  0  0  0  0  0  0  0  0
   10.4258   -3.0106   23.0998 C   0  0  0  0  0  0  0  0  0  0  0  0
   10.2148   -3.4364   25.4200 C   0  0  0  0  0  0  0  0  0  0  0  0
    9.7853   -1.1840   24.4927 C   0  0  0  0  0  0  0  0  0  0  0  0
    5.0276   -8.5227   17.5352 C   0  0  0  0  0  0  0  0  0  0  0  0
    9.8187   -2.0895   25.5800 C   0  0  0  0  0  0  0  0  0  0  0  0
    5.6473   -8.7216   15.3158 C   0  0  0  0  0  0  0  0  0  0  0  0
   10.7581   -3.1233   19.4720 N   0  0  0  0  0  0  0  0  0  0  0  0
    9.9571   -4.0573   16.8866 C   0  0  0  0  0  0  0  0  0  0  0  0
    7.6213   -6.5618   16.0087 C   0  0  0  0  0  0  0  0  0  0  0  0
   10.8583   -2.6527   20.7222 C   0  0  0  0  0  0  0  0  0  0  0  0
   10.6412   -3.5089   21.7936 C   0  0  0  0  0  0  0  0  0  0  0  0
   10.4972   -3.8968   24.1589 C   0  0  0  0  0  0  0  0  0  0  0  0
    5.9260   -8.2736   16.5517 C   0  0  0  0  0  0  0  0  0  0  0  0
    3.8816   -9.1166   17.2493 C   0  0  0  0  0  0  0  0  0  0  0  0
   10.1297   -1.6575   23.2324 C   0  0  0  0  0  0  0  0  0  0  0  0
    9.4684   -1.6929   26.7263 F   0  0  0  0  0  0  0  0  0  0  0  0
    7.7963   -7.7906   17.9837 C   0  0  0  0  0  0  0  0  0  0  0  0
   10.5884   -3.0725   16.7902 O   0  0  0  0  0  0  0  0  0  0  0  0
   10.4323   -5.3494   20.3516 C   0  0  0  0  0  0  0  0  0  0  0  0
    7.1156   -7.5454   16.8218 C   0  0  0  0  0  0  0  0  0  0  0  0
   10.3885   -4.4388   19.2773 C   0  0  0  0  0  0  0  0  0  0  0  0
    4.5160   -9.3822   15.0841 C   0  0  0  0  0  0  0  0  0  0  0  0
  1  3  4  0
  1 24  4  0
  2  6  4  0
  2 15  4  0
  3  5  4  0
  3  6  4  0
  4 21  4  0
  4 29  4  0
  5 15  4  0
  5 28  1  0
  6 16  4  0
  7 18  4  0
  7 26  4  0
  8 18  1  0
  8 19  4  0
  8 22  4  0
  9 12  4  0
  9 19  4  0
 10 12  4  0
 10 22  4  0
 11 20  4  0
 11 21  4  0
 12 23  1  0
 13 20  4  0
 13 29  4  0
 14 17  4  0
 14 28  4  0
 15 25  2  0
 16 27  4  0
 17 18  4  0
 20 27  1  0
 24 27  4  0
 26 28  4  0
M  END
$$$$

 Created by Python create_sdf_string function

 29 33  0  0  0  0  0  0  0  0999 V2000
    8.8270   -7.0288   18.4251 C   0  0  0  0  0  0  0  0  0  0  0  0
    9.1576   -4.6236   15.8860 O   0  0  0  0  0  0  0  0  0  0  0  0
    9.1509   -5.9108   17.7177 C   0  0  0  0  0  0  0  0  0  0  0  0
    3.6373   -9.5349   16.0582 N   0  0  0  0  0  0  0  0  0  0  0  0
    9.9275   -4.8001   18.0438 N   0  0  0  0  0  0  0  0  0  0  0  0
    8.5908   -5.7425   16.4412 C   0  0  0  0  0  0  0  0  0  0  0  0
   10.5993   -4.8981   21.6068 C   0  0  0  0  0  0  0  0  0  0  0  0
   10.4258   -3.0106   23.0998 C   0  0  0  0  0  0  0  0  0  0  0  0
   10.2148   -3.4364   25.4200 C   0  0  0  0  0  0  0  0  0  0  0  0
    9.7853   -1.1840   24.4927 C   0  0  0  0  0  0  0  0  0  0  0  0
    5.0276   -8.5227   17.5352 C   0  0  0  0  0  0  0  0  0  0  0  0
    9.8187   -2.0895   25.5800 C   0  0  0  0  0  0  0  0  0  0  0  0
    5.6473   -8.7216   15.3158 C   0  0  0  0  0  0  0  0  0  0  0  0
   10.7581   -3.1233   19.4720 N   0  0  0  0  0  0  0  0  0  0  0  0
    9.9571   -4.0573   16.8866 C   0  0  0  0  0  0  0  0  0  0  0  0
    7.6213   -6.5618   16.0087 C   0  0  0  0  0  0  0  0  0  0  0  0
   10.8583   -2.6527   20.7222 C   0  0  0  0  0  0  0  0  0  0  0  0
   10.6412   -3.5089   21.7936 C   0  0  0  0  0  0  0  0  0  0  0  0
   10.4972   -3.8968   24.1589 C   0  0  0  0  0  0  0  0  0  0  0  0
    5.9260   -8.2736   16.5517 C   0  0  0  0  0  0  0  0  0  0  0  0
    3.8816   -9.1166   17.2493 C   0  0  0  0  0  0  0  0  0  0  0  0
   10.1297   -1.6575   23.2324 C   0  0  0  0  0  0  0  0  0  0  0  0
    9.4684   -1.6929   26.7263 F   0  0  0  0  0  0  0  0  0  0  0  0
    7.7963   -7.7906   17.9837 C   0  0  0  0  0  0  0  0  0  0  0  0
   10.5884   -3.0725   16.7902 O   0  0  0  0  0  0  0  0  0  0  0  0
   10.4323   -5.3494   20.3516 C   0  0  0  0  0  0  0  0  0  0  0  0
    7.1156   -7.5454   16.8218 C   0  0  0  0  0  0  0  0  0  0  0  0
   10.3885   -4.4388   19.2773 C   0  0  0  0  0  0  0  0  0  0  0  0
    4.5160   -9.3822   15.0841 C   0  0  0  0  0  0  0  0  0  0  0  0
  1  3  4  0
  1 24  4  0
  2  6  4  0
  2 15  4  0
  3  5  4  0
  3  6  4  0
  4 21  4  0
  4 29  4  0
  5 15  4  0
  5 28  1  0
  6 16  4  0
  7 18  4  0
  7 26  4  0
  8 18  1  0
  8 19  4  0
  8 22  4  0
  9 12  4  0
  9 19  4  0
 10 12  4  0
 10 22  4  0
 11 20  4  0
 11 21  4  0
 12 23  1  0
 13 20  4  0
 13 29  4  0
 14 17  4  0
 14 28  4  0
 15 25  2  0
 16 27  4  0
 17 18  4  0
 20 27  1  0
 24 27  4  0
 26 28  4  0
M  END
$$$$

 Created by Python create_sdf_string function

 29 33  0  0  0  0  0  0  0  0999 V2000
    8.8270   -7.0288   18.4251 C   0  0  0  0  0  0  0  0  0  0  0  0
    9.1576   -4.6236   15.8860 O   0  0  0  0  0  0  0  0  0  0  0  0
    9.1509   -5.9108   17.7177 C   0  0  0  0  0  0  0  0  0  0  0  0
    3.6373   -9.5349   16.0582 N   0  0  0  0  0  0  0  0  0  0  0  0
    9.9275   -4.8001   18.0438 N   0  0  0  0  0  0  0  0  0  0  0  0
    8.5908   -5.7425   16.4412 C   0  0  0  0  0  0  0  0  0  0  0  0
   10.5993   -4.8981   21.6068 C   0  0  0  0  0  0  0  0  0  0  0  0
   10.4258   -3.0106   23.0998 C   0  0  0  0  0  0  0  0  0  0  0  0
   10.2148   -3.4364   25.4200 C   0  0  0  0  0  0  0  0  0  0  0  0
    9.7853   -1.1840   24.4927 C   0  0  0  0  0  0  0  0  0  0  0  0
    5.0276   -8.5227   17.5352 C   0  0  0  0  0  0  0  0  0  0  0  0
    9.8187   -2.0895   25.5800 C   0  0  0  0  0  0  0  0  0  0  0  0
    5.6473   -8.7216   15.3158 C   0  0  0  0  0  0  0  0  0  0  0  0
   10.7581   -3.1233   19.4720 N   0  0  0  0  0  0  0  0  0  0  0  0
    9.9571   -4.0573   16.8866 C   0  0  0  0  0  0  0  0  0  0  0  0
    7.6213   -6.5618   16.0087 C   0  0  0  0  0  0  0  0  0  0  0  0
   10.8583   -2.6527   20.7222 C   0  0  0  0  0  0  0  0  0  0  0  0
   10.6412   -3.5089   21.7936 C   0  0  0  0  0  0  0  0  0  0  0  0
   10.4972   -3.8968   24.1589 C   0  0  0  0  0  0  0  0  0  0  0  0
    5.9260   -8.2736   16.5517 C   0  0  0  0  0  0  0  0  0  0  0  0
    3.8816   -9.1166   17.2493 C   0  0  0  0  0  0  0  0  0  0  0  0
   10.1297   -1.6575   23.2324 C   0  0  0  0  0  0  0  0  0  0  0  0
    9.4684   -1.6929   26.7263 F   0  0  0  0  0  0  0  0  0  0  0  0
    7.7963   -7.7906   17.9837 C   0  0  0  0  0  0  0  0  0  0  0  0
   10.5884   -3.0725   16.7902 O   0  0  0  0  0  0  0  0  0  0  0  0
   10.4323   -5.3494   20.3516 C   0  0  0  0  0  0  0  0  0  0  0  0
    7.1156   -7.5454   16.8218 C   0  0  0  0  0  0  0  0  0  0  0  0
   10.3885   -4.4388   19.2773 C   0  0  0  0  0  0  0  0  0  0  0  0
    4.5160   -9.3822   15.0841 C   0  0  0  0  0  0  0  0  0  0  0  0
  1  3  4  0
  1 24  4  0
  2  6  4  0
  2 15  4  0
  3  5  4  0
  3  6  4  0
  4 21  4  0
  4 29  4  0
  5 15  4  0
  5 28  1  0
  6 16  4  0
  7 18  4  0
  7 26  4  0
  8 18  1  0
  8 19  4  0
  8 22  4  0
  9 12  4  0
  9 19  4  0
 10 12  4  0
 10 22  4  0
 11 20  4  0
 11 21  4  0
 12 23  1  0
 13 20  4  0
 13 29  4  0
 14 17  4  0
 14 28  4  0
 15 25  2  0
 16 27  4  0
 17 18  4  0
 20 27  1  0
 24 27  4  0
 26 28  4  0
M  END
$$$$

 Created by Python create_sdf_string function

 29 33  0  0  0  0  0  0  0  0999 V2000
    8.8270   -7.0288   18.4251 C   0  0  0  0  0  0  0  0  0  0  0  0
    9.1576   -4.6236   15.8860 O   0  0  0  0  0  0  0  0  0  0  0  0
    9.1509   -5.9108   17.7177 C   0  0  0  0  0  0  0  0  0  0  0  0
    3.6373   -9.5349   16.0582 N   0  0  0  0  0  0  0  0  0  0  0  0
    9.9275   -4.8001   18.0438 N   0  0  0  0  0  0  0  0  0  0  0  0
    8.5908   -5.7425   16.4412 C   0  0  0  0  0  0  0  0  0  0  0  0
   10.5993   -4.8981   21.6068 C   0  0  0  0  0  0  0  0  0  0  0  0
   10.4258   -3.0106   23.0998 C   0  0  0  0  0  0  0  0  0  0  0  0
   10.2148   -3.4364   25.4200 C   0  0  0  0  0  0  0  0  0  0  0  0
    9.7853   -1.1840   24.4927 C   0  0  0  0  0  0  0  0  0  0  0  0
    5.0276   -8.5227   17.5352 C   0  0  0  0  0  0  0  0  0  0  0  0
    9.8187   -2.0895   25.5800 C   0  0  0  0  0  0  0  0  0  0  0  0
    5.6473   -8.7216   15.3158 C   0  0  0  0  0  0  0  0  0  0  0  0
   10.7581   -3.1233   19.4720 N   0  0  0  0  0  0  0  0  0  0  0  0
    9.9571   -4.0573   16.8866 C   0  0  0  0  0  0  0  0  0  0  0  0
    7.6213   -6.5618   16.0087 C   0  0  0  0  0  0  0  0  0  0  0  0
   10.8583   -2.6527   20.7222 C   0  0  0  0  0  0  0  0  0  0  0  0
   10.6412   -3.5089   21.7936 C   0  0  0  0  0  0  0  0  0  0  0  0
   10.4972   -3.8968   24.1589 C   0  0  0  0  0  0  0  0  0  0  0  0
    5.9260   -8.2736   16.5517 C   0  0  0  0  0  0  0  0  0  0  0  0
    3.8816   -9.1166   17.2493 C   0  0  0  0  0  0  0  0  0  0  0  0
   10.1297   -1.6575   23.2324 C   0  0  0  0  0  0  0  0  0  0  0  0
    9.4684   -1.6929   26.7263 F   0  0  0  0  0  0  0  0  0  0  0  0
    7.7963   -7.7906   17.9837 C   0  0  0  0  0  0  0  0  0  0  0  0
   10.5884   -3.0725   16.7902 O   0  0  0  0  0  0  0  0  0  0  0  0
   10.4323   -5.3494   20.3516 C   0  0  0  0  0  0  0  0  0  0  0  0
    7.1156   -7.5454   16.8218 C   0  0  0  0  0  0  0  0  0  0  0  0
   10.3885   -4.4388   19.2773 C   0  0  0  0  0  0  0  0  0  0  0  0
    4.5160   -9.3822   15.0841 C   0  0  0  0  0  0  0  0  0  0  0  0
  1  3  4  0
  1 24  4  0
  2  6  4  0
  2 15  4  0
  3  5  4  0
  3  6  4  0
  4 21  4  0
  4 29  4  0
  5 15  4  0
  5 28  1  0
  6 16  4  0
  7 18  4  0
  7 26  4  0
  8 18  1  0
  8 19  4  0
  8 22  4  0
  9 12  4  0
  9 19  4  0
 10 12  4  0
 10 22  4  0
 11 20  4  0
 11 21  4  0
 12 23  1  0
 13 20  4  0
 13 29  4  0
 14 17  4  0
 14 28  4  0
 15 25  2  0
 16 27  4  0
 17 18  4  0
 20 27  1  0
 24 27  4  0
 26 28  4  0
M  END
$$$$

 Created by Python create_sdf_string function

 29 33  0  0  0  0  0  0  0  0999 V2000
    8.8270   -7.0288   18.4251 C   0  0  0  0  0  0  0  0  0  0  0  0
    9.1576   -4.6236   15.8860 O   0  0  0  0  0  0  0  0  0  0  0  0
    9.1509   -5.9108   17.7177 C   0  0  0  0  0  0  0  0  0  0  0  0
    3.6373   -9.5349   16.0582 N   0  0  0  0  0  0  0  0  0  0  0  0
    9.9275   -4.8001   18.0438 N   0  0  0  0  0  0  0  0  0  0  0  0
    8.5908   -5.7425   16.4412 C   0  0  0  0  0  0  0  0  0  0  0  0
   10.5993   -4.8981   21.6068 C   0  0  0  0  0  0  0  0  0  0  0  0
   10.4258   -3.0106   23.0998 C   0  0  0  0  0  0  0  0  0  0  0  0
   10.2148   -3.4364   25.4200 C   0  0  0  0  0  0  0  0  0  0  0  0
    9.7853   -1.1840   24.4927 C   0  0  0  0  0  0  0  0  0  0  0  0
    5.0276   -8.5227   17.5352 C   0  0  0  0  0  0  0  0  0  0  0  0
    9.8187   -2.0895   25.5800 C   0  0  0  0  0  0  0  0  0  0  0  0
    5.6473   -8.7216   15.3158 C   0  0  0  0  0  0  0  0  0  0  0  0
   10.7581   -3.1233   19.4720 N   0  0  0  0  0  0  0  0  0  0  0  0
    9.9571   -4.0573   16.8866 C   0  0  0  0  0  0  0  0  0  0  0  0
    7.6213   -6.5618   16.0087 C   0  0  0  0  0  0  0  0  0  0  0  0
   10.8583   -2.6527   20.7222 C   0  0  0  0  0  0  0  0  0  0  0  0
   10.6412   -3.5089   21.7936 C   0  0  0  0  0  0  0  0  0  0  0  0
   10.4972   -3.8968   24.1589 C   0  0  0  0  0  0  0  0  0  0  0  0
    5.9260   -8.2736   16.5517 C   0  0  0  0  0  0  0  0  0  0  0  0
    3.8816   -9.1166   17.2493 C   0  0  0  0  0  0  0  0  0  0  0  0
   10.1297   -1.6575   23.2324 C   0  0  0  0  0  0  0  0  0  0  0  0
    9.4684   -1.6929   26.7263 F   0  0  0  0  0  0  0  0  0  0  0  0
    7.7963   -7.7906   17.9837 C   0  0  0  0  0  0  0  0  0  0  0  0
   10.5884   -3.0725   16.7902 O   0  0  0  0  0  0  0  0  0  0  0  0
   10.4323   -5.3494   20.3516 C   0  0  0  0  0  0  0  0  0  0  0  0
    7.1156   -7.5454   16.8218 C   0  0  0  0  0  0  0  0  0  0  0  0
   10.3885   -4.4388   19.2773 C   0  0  0  0  0  0  0  0  0  0  0  0
    4.5160   -9.3822   15.0841 C   0  0  0  0  0  0  0  0  0  0  0  0
  1  3  4  0
  1 24  4  0
  2  6  4  0
  2 15  4  0
  3  5  4  0
  3  6  4  0
  4 21  4  0
  4 29  4  0
  5 15  4  0
  5 28  1  0
  6 16  4  0
  7 18  4  0
  7 26  4  0
  8 18  1  0
  8 19  4  0
  8 22  4  0
  9 12  4  0
  9 19  4  0
 10 12  4  0
 10 22  4  0
 11 20  4  0
 11 21  4  0
 12 23  1  0
 13 20  4  0
 13 29  4  0
 14 17  4  0
 14 28  4  0
 15 25  2  0
 16 27  4  0
 17 18  4  0
 20 27  1  0
 24 27  4  0
 26 28  4  0
M  END
$$$$

 Created by Python create_sdf_string function

 29 33  0  0  0  0  0  0  0  0999 V2000
    8.8270   -7.0288   18.4251 C   0  0  0  0  0  0  0  0  0  0  0  0
    9.1576   -4.6236   15.8860 O   0  0  0  0  0  0  0  0  0  0  0  0
    9.1509   -5.9108   17.7177 C   0  0  0  0  0  0  0  0  0  0  0  0
    3.6373   -9.5349   16.0582 N   0  0  0  0  0  0  0  0  0  0  0  0
    9.9275   -4.8001   18.0438 N   0  0  0  0  0  0  0  0  0  0  0  0
    8.5908   -5.7425   16.4412 C   0  0  0  0  0  0  0  0  0  0  0  0
   10.5993   -4.8981   21.6068 C   0  0  0  0  0  0  0  0  0  0  0  0
   10.4258   -3.0106   23.0998 C   0  0  0  0  0  0  0  0  0  0  0  0
   10.2148   -3.4364   25.4200 C   0  0  0  0  0  0  0  0  0  0  0  0
    9.7853   -1.1840   24.4927 C   0  0  0  0  0  0  0  0  0  0  0  0
    5.0276   -8.5227   17.5352 C   0  0  0  0  0  0  0  0  0  0  0  0
    9.8187   -2.0895   25.5800 C   0  0  0  0  0  0  0  0  0  0  0  0
    5.6473   -8.7216   15.3158 C   0  0  0  0  0  0  0  0  0  0  0  0
   10.7581   -3.1233   19.4720 N   0  0  0  0  0  0  0  0  0  0  0  0
    9.9571   -4.0573   16.8866 C   0  0  0  0  0  0  0  0  0  0  0  0
    7.6213   -6.5618   16.0087 C   0  0  0  0  0  0  0  0  0  0  0  0
   10.8583   -2.6527   20.7222 C   0  0  0  0  0  0  0  0  0  0  0  0
   10.6412   -3.5089   21.7936 C   0  0  0  0  0  0  0  0  0  0  0  0
   10.4972   -3.8968   24.1589 C   0  0  0  0  0  0  0  0  0  0  0  0
    5.9260   -8.2736   16.5517 C   0  0  0  0  0  0  0  0  0  0  0  0
    3.8816   -9.1166   17.2493 C   0  0  0  0  0  0  0  0  0  0  0  0
   10.1297   -1.6575   23.2324 C   0  0  0  0  0  0  0  0  0  0  0  0
    9.4684   -1.6929   26.7263 F   0  0  0  0  0  0  0  0  0  0  0  0
    7.7963   -7.7906   17.9837 C   0  0  0  0  0  0  0  0  0  0  0  0
   10.5884   -3.0725   16.7902 O   0  0  0  0  0  0  0  0  0  0  0  0
   10.4323   -5.3494   20.3516 C   0  0  0  0  0  0  0  0  0  0  0  0
    7.1156   -7.5454   16.8218 C   0  0  0  0  0  0  0  0  0  0  0  0
   10.3885   -4.4388   19.2773 C   0  0  0  0  0  0  0  0  0  0  0  0
    4.5160   -9.3822   15.0841 C   0  0  0  0  0  0  0  0  0  0  0  0
  1  3  4  0
  1 24  4  0
  2  6  4  0
  2 15  4  0
  3  5  4  0
  3  6  4  0
  4 21  4  0
  4 29  4  0
  5 15  4  0
  5 28  1  0
  6 16  4  0
  7 18  4  0
  7 26  4  0
  8 18  1  0
  8 19  4  0
  8 22  4  0
  9 12  4  0
  9 19  4  0
 10 12  4  0
 10 22  4  0
 11 20  4  0
 11 21  4  0
 12 23  1  0
 13 20  4  0
 13 29  4  0
 14 17  4  0
 14 28  4  0
 15 25  2  0
 16 27  4  0
 17 18  4  0
 20 27  1  0
 24 27  4  0
 26 28  4  0
M  END
$$$$

 Created by Python create_sdf_string function

 29 33  0  0  0  0  0  0  0  0999 V2000
    8.8270   -7.0288   18.4251 C   0  0  0  0  0  0  0  0  0  0  0  0
    9.1576   -4.6236   15.8860 O   0  0  0  0  0  0  0  0  0  0  0  0
    9.1509   -5.9108   17.7177 C   0  0  0  0  0  0  0  0  0  0  0  0
    3.6373   -9.5349   16.0582 N   0  0  0  0  0  0  0  0  0  0  0  0
    9.9275   -4.8001   18.0438 N   0  0  0  0  0  0  0  0  0  0  0  0
    8.5908   -5.7425   16.4412 C   0  0  0  0  0  0  0  0  0  0  0  0
   10.5993   -4.8981   21.6068 C   0  0  0  0  0  0  0  0  0  0  0  0
   10.4258   -3.0106   23.0998 C   0  0  0  0  0  0  0  0  0  0  0  0
   10.2148   -3.4364   25.4200 C   0  0  0  0  0  0  0  0  0  0  0  0
    9.7853   -1.1840   24.4927 C   0  0  0  0  0  0  0  0  0  0  0  0
    5.0276   -8.5227   17.5352 C   0  0  0  0  0  0  0  0  0  0  0  0
    9.8187   -2.0895   25.5800 C   0  0  0  0  0  0  0  0  0  0  0  0
    5.6473   -8.7216   15.3158 C   0  0  0  0  0  0  0  0  0  0  0  0
   10.7581   -3.1233   19.4720 N   0  0  0  0  0  0  0  0  0  0  0  0
    9.9571   -4.0573   16.8866 C   0  0  0  0  0  0  0  0  0  0  0  0
    7.6213   -6.5618   16.0087 C   0  0  0  0  0  0  0  0  0  0  0  0
   10.8583   -2.6527   20.7222 C   0  0  0  0  0  0  0  0  0  0  0  0
   10.6412   -3.5089   21.7936 C   0  0  0  0  0  0  0  0  0  0  0  0
   10.4972   -3.8968   24.1589 C   0  0  0  0  0  0  0  0  0  0  0  0
    5.9260   -8.2736   16.5517 C   0  0  0  0  0  0  0  0  0  0  0  0
    3.8816   -9.1166   17.2493 C   0  0  0  0  0  0  0  0  0  0  0  0
   10.1297   -1.6575   23.2324 C   0  0  0  0  0  0  0  0  0  0  0  0
    9.4684   -1.6929   26.7263 F   0  0  0  0  0  0  0  0  0  0  0  0
    7.7963   -7.7906   17.9837 C   0  0  0  0  0  0  0  0  0  0  0  0
   10.5884   -3.0725   16.7902 O   0  0  0  0  0  0  0  0  0  0  0  0
   10.4323   -5.3494   20.3516 C   0  0  0  0  0  0  0  0  0  0  0  0
    7.1156   -7.5454   16.8218 C   0  0  0  0  0  0  0  0  0  0  0  0
   10.3885   -4.4388   19.2773 C   0  0  0  0  0  0  0  0  0  0  0  0
    4.5160   -9.3822   15.0841 C   0  0  0  0  0  0  0  0  0  0  0  0
  1  3  4  0
  1 24  4  0
  2  6  4  0
  2 15  4  0
  3  5  4  0
  3  6  4  0
  4 21  4  0
  4 29  4  0
  5 15  4  0
  5 28  1  0
  6 16  4  0
  7 18  4  0
  7 26  4  0
  8 18  1  0
  8 19  4  0
  8 22  4  0
  9 12  4  0
  9 19  4  0
 10 12  4  0
 10 22  4  0
 11 20  4  0
 11 21  4  0
 12 23  1  0
 13 20  4  0
 13 29  4  0
 14 17  4  0
 14 28  4  0
 15 25  2  0
 16 27  4  0
 17 18  4  0
 20 27  1  0
 24 27  4  0
 26 28  4  0
M  END
$$$$

 Created by Python create_sdf_string function

 29 33  0  0  0  0  0  0  0  0999 V2000
    8.8270   -7.0288   18.4251 C   0  0  0  0  0  0  0  0  0  0  0  0
    9.1576   -4.6236   15.8860 O   0  0  0  0  0  0  0  0  0  0  0  0
    9.1509   -5.9108   17.7177 C   0  0  0  0  0  0  0  0  0  0  0  0
    3.6373   -9.5349   16.0582 N   0  0  0  0  0  0  0  0  0  0  0  0
    9.9275   -4.8001   18.0438 N   0  0  0  0  0  0  0  0  0  0  0  0
    8.5908   -5.7425   16.4412 C   0  0  0  0  0  0  0  0  0  0  0  0
   10.5993   -4.8981   21.6068 C   0  0  0  0  0  0  0  0  0  0  0  0
   10.4258   -3.0106   23.0998 C   0  0  0  0  0  0  0  0  0  0  0  0
   10.2148   -3.4364   25.4200 C   0  0  0  0  0  0  0  0  0  0  0  0
    9.7853   -1.1840   24.4927 C   0  0  0  0  0  0  0  0  0  0  0  0
    5.0276   -8.5227   17.5352 C   0  0  0  0  0  0  0  0  0  0  0  0
    9.8187   -2.0895   25.5800 C   0  0  0  0  0  0  0  0  0  0  0  0
    5.6473   -8.7216   15.3158 C   0  0  0  0  0  0  0  0  0  0  0  0
   10.7581   -3.1233   19.4720 N   0  0  0  0  0  0  0  0  0  0  0  0
    9.9571   -4.0573   16.8866 C   0  0  0  0  0  0  0  0  0  0  0  0
    7.6213   -6.5618   16.0087 C   0  0  0  0  0  0  0  0  0  0  0  0
   10.8583   -2.6527   20.7222 C   0  0  0  0  0  0  0  0  0  0  0  0
   10.6412   -3.5089   21.7936 C   0  0  0  0  0  0  0  0  0  0  0  0
   10.4972   -3.8968   24.1589 C   0  0  0  0  0  0  0  0  0  0  0  0
    5.9260   -8.2736   16.5517 C   0  0  0  0  0  0  0  0  0  0  0  0
    3.8816   -9.1166   17.2493 C   0  0  0  0  0  0  0  0  0  0  0  0
   10.1297   -1.6575   23.2324 C   0  0  0  0  0  0  0  0  0  0  0  0
    9.4684   -1.6929   26.7263 F   0  0  0  0  0  0  0  0  0  0  0  0
    7.7963   -7.7906   17.9837 C   0  0  0  0  0  0  0  0  0  0  0  0
   10.5884   -3.0725   16.7902 O   0  0  0  0  0  0  0  0  0  0  0  0
   10.4323   -5.3494   20.3516 C   0  0  0  0  0  0  0  0  0  0  0  0
    7.1156   -7.5454   16.8218 C   0  0  0  0  0  0  0  0  0  0  0  0
   10.3885   -4.4388   19.2773 C   0  0  0  0  0  0  0  0  0  0  0  0
    4.5160   -9.3822   15.0841 C   0  0  0  0  0  0  0  0  0  0  0  0
  1  3  4  0
  1 24  4  0
  2  6  4  0
  2 15  4  0
  3  5  4  0
  3  6  4  0
  4 21  4  0
  4 29  4  0
  5 15  4  0
  5 28  1  0
  6 16  4  0
  7 18  4  0
  7 26  4  0
  8 18  1  0
  8 19  4  0
  8 22  4  0
  9 12  4  0
  9 19  4  0
 10 12  4  0
 10 22  4  0
 11 20  4  0
 11 21  4  0
 12 23  1  0
 13 20  4  0
 13 29  4  0
 14 17  4  0
 14 28  4  0
 15 25  2  0
 16 27  4  0
 17 18  4  0
 20 27  1  0
 24 27  4  0
 26 28  4  0
M  END
$$$$

 Created by Python create_sdf_string function

 29 33  0  0  0  0  0  0  0  0999 V2000
    8.8270   -7.0288   18.4251 C   0  0  0  0  0  0  0  0  0  0  0  0
    9.1576   -4.6236   15.8860 O   0  0  0  0  0  0  0  0  0  0  0  0
    9.1509   -5.9108   17.7177 C   0  0  0  0  0  0  0  0  0  0  0  0
    3.6373   -9.5349   16.0582 N   0  0  0  0  0  0  0  0  0  0  0  0
    9.9275   -4.8001   18.0438 N   0  0  0  0  0  0  0  0  0  0  0  0
    8.5908   -5.7425   16.4412 C   0  0  0  0  0  0  0  0  0  0  0  0
   10.5993   -4.8981   21.6068 C   0  0  0  0  0  0  0  0  0  0  0  0
   10.4258   -3.0106   23.0998 C   0  0  0  0  0  0  0  0  0  0  0  0
   10.2148   -3.4364   25.4200 C   0  0  0  0  0  0  0  0  0  0  0  0
    9.7853   -1.1840   24.4927 C   0  0  0  0  0  0  0  0  0  0  0  0
    5.0276   -8.5227   17.5352 C   0  0  0  0  0  0  0  0  0  0  0  0
    9.8187   -2.0895   25.5800 C   0  0  0  0  0  0  0  0  0  0  0  0
    5.6473   -8.7216   15.3158 C   0  0  0  0  0  0  0  0  0  0  0  0
   10.7581   -3.1233   19.4720 N   0  0  0  0  0  0  0  0  0  0  0  0
    9.9571   -4.0573   16.8866 C   0  0  0  0  0  0  0  0  0  0  0  0
    7.6213   -6.5618   16.0087 C   0  0  0  0  0  0  0  0  0  0  0  0
   10.8583   -2.6527   20.7222 C   0  0  0  0  0  0  0  0  0  0  0  0
   10.6412   -3.5089   21.7936 C   0  0  0  0  0  0  0  0  0  0  0  0
   10.4972   -3.8968   24.1589 C   0  0  0  0  0  0  0  0  0  0  0  0
    5.9260   -8.2736   16.5517 C   0  0  0  0  0  0  0  0  0  0  0  0
    3.8816   -9.1166   17.2493 C   0  0  0  0  0  0  0  0  0  0  0  0
   10.1297   -1.6575   23.2324 C   0  0  0  0  0  0  0  0  0  0  0  0
    9.4684   -1.6929   26.7263 F   0  0  0  0  0  0  0  0  0  0  0  0
    7.7963   -7.7906   17.9837 C   0  0  0  0  0  0  0  0  0  0  0  0
   10.5884   -3.0725   16.7902 O   0  0  0  0  0  0  0  0  0  0  0  0
   10.4323   -5.3494   20.3516 C   0  0  0  0  0  0  0  0  0  0  0  0
    7.1156   -7.5454   16.8218 C   0  0  0  0  0  0  0  0  0  0  0  0
   10.3885   -4.4388   19.2773 C   0  0  0  0  0  0  0  0  0  0  0  0
    4.5160   -9.3822   15.0841 C   0  0  0  0  0  0  0  0  0  0  0  0
  1  3  4  0
  1 24  4  0
  2  6  4  0
  2 15  4  0
  3  5  4  0
  3  6  4  0
  4 21  4  0
  4 29  4  0
  5 15  4  0
  5 28  1  0
  6 16  4  0
  7 18  4  0
  7 26  4  0
  8 18  1  0
  8 19  4  0
  8 22  4  0
  9 12  4  0
  9 19  4  0
 10 12  4  0
 10 22  4  0
 11 20  4  0
 11 21  4  0
 12 23  1  0
 13 20  4  0
 13 29  4  0
 14 17  4  0
 14 28  4  0
 15 25  2  0
 16 27  4  0
 17 18  4  0
 20 27  1  0
 24 27  4  0
 26 28  4  0
M  END
$$$$

 Created by Python create_sdf_string function

 29 33  0  0  0  0  0  0  0  0999 V2000
    8.8270   -7.0288   18.4251 C   0  0  0  0  0  0  0  0  0  0  0  0
    9.1576   -4.6236   15.8860 O   0  0  0  0  0  0  0  0  0  0  0  0
    9.1509   -5.9108   17.7177 C   0  0  0  0  0  0  0  0  0  0  0  0
    3.6373   -9.5349   16.0582 N   0  0  0  0  0  0  0  0  0  0  0  0
    9.9275   -4.8001   18.0438 N   0  0  0  0  0  0  0  0  0  0  0  0
    8.5908   -5.7425   16.4412 C   0  0  0  0  0  0  0  0  0  0  0  0
   10.5993   -4.8981   21.6068 C   0  0  0  0  0  0  0  0  0  0  0  0
   10.4258   -3.0106   23.0998 C   0  0  0  0  0  0  0  0  0  0  0  0
   10.2148   -3.4364   25.4200 C   0  0  0  0  0  0  0  0  0  0  0  0
    9.7853   -1.1840   24.4927 C   0  0  0  0  0  0  0  0  0  0  0  0
    5.0276   -8.5227   17.5352 C   0  0  0  0  0  0  0  0  0  0  0  0
    9.8187   -2.0895   25.5800 C   0  0  0  0  0  0  0  0  0  0  0  0
    5.6473   -8.7216   15.3158 C   0  0  0  0  0  0  0  0  0  0  0  0
   10.7581   -3.1233   19.4720 N   0  0  0  0  0  0  0  0  0  0  0  0
    9.9571   -4.0573   16.8866 C   0  0  0  0  0  0  0  0  0  0  0  0
    7.6213   -6.5618   16.0087 C   0  0  0  0  0  0  0  0  0  0  0  0
   10.8583   -2.6527   20.7222 C   0  0  0  0  0  0  0  0  0  0  0  0
   10.6412   -3.5089   21.7936 C   0  0  0  0  0  0  0  0  0  0  0  0
   10.4972   -3.8968   24.1589 C   0  0  0  0  0  0  0  0  0  0  0  0
    5.9260   -8.2736   16.5517 C   0  0  0  0  0  0  0  0  0  0  0  0
    3.8816   -9.1166   17.2493 C   0  0  0  0  0  0  0  0  0  0  0  0
   10.1297   -1.6575   23.2324 C   0  0  0  0  0  0  0  0  0  0  0  0
    9.4684   -1.6929   26.7263 F   0  0  0  0  0  0  0  0  0  0  0  0
    7.7963   -7.7906   17.9837 C   0  0  0  0  0  0  0  0  0  0  0  0
   10.5884   -3.0725   16.7902 O   0  0  0  0  0  0  0  0  0  0  0  0
   10.4323   -5.3494   20.3516 C   0  0  0  0  0  0  0  0  0  0  0  0
    7.1156   -7.5454   16.8218 C   0  0  0  0  0  0  0  0  0  0  0  0
   10.3885   -4.4388   19.2773 C   0  0  0  0  0  0  0  0  0  0  0  0
    4.5160   -9.3822   15.0841 C   0  0  0  0  0  0  0  0  0  0  0  0
  1  3  4  0
  1 24  4  0
  2  6  4  0
  2 15  4  0
  3  5  4  0
  3  6  4  0
  4 21  4  0
  4 29  4  0
  5 15  4  0
  5 28  1  0
  6 16  4  0
  7 18  4  0
  7 26  4  0
  8 18  1  0
  8 19  4  0
  8 22  4  0
  9 12  4  0
  9 19  4  0
 10 12  4  0
 10 22  4  0
 11 20  4  0
 11 21  4  0
 12 23  1  0
 13 20  4  0
 13 29  4  0
 14 17  4  0
 14 28  4  0
 15 25  2  0
 16 27  4  0
 17 18  4  0
 20 27  1  0
 24 27  4  0
 26 28  4  0
M  END
$$$$

 Created by Python create_sdf_string function

 29 33  0  0  0  0  0  0  0  0999 V2000
    8.8270   -7.0288   18.4251 C   0  0  0  0  0  0  0  0  0  0  0  0
    9.1576   -4.6236   15.8860 O   0  0  0  0  0  0  0  0  0  0  0  0
    9.1509   -5.9108   17.7177 C   0  0  0  0  0  0  0  0  0  0  0  0
    3.6373   -9.5349   16.0582 N   0  0  0  0  0  0  0  0  0  0  0  0
    9.9275   -4.8001   18.0438 N   0  0  0  0  0  0  0  0  0  0  0  0
    8.5908   -5.7425   16.4412 C   0  0  0  0  0  0  0  0  0  0  0  0
   10.5993   -4.8981   21.6068 C   0  0  0  0  0  0  0  0  0  0  0  0
   10.4258   -3.0106   23.0998 C   0  0  0  0  0  0  0  0  0  0  0  0
   10.2148   -3.4364   25.4200 C   0  0  0  0  0  0  0  0  0  0  0  0
    9.7853   -1.1840   24.4927 C   0  0  0  0  0  0  0  0  0  0  0  0
    5.0276   -8.5227   17.5352 C   0  0  0  0  0  0  0  0  0  0  0  0
    9.8187   -2.0895   25.5800 C   0  0  0  0  0  0  0  0  0  0  0  0
    5.6473   -8.7216   15.3158 C   0  0  0  0  0  0  0  0  0  0  0  0
   10.7581   -3.1233   19.4720 N   0  0  0  0  0  0  0  0  0  0  0  0
    9.9571   -4.0573   16.8866 C   0  0  0  0  0  0  0  0  0  0  0  0
    7.6213   -6.5618   16.0087 C   0  0  0  0  0  0  0  0  0  0  0  0
   10.8583   -2.6527   20.7222 C   0  0  0  0  0  0  0  0  0  0  0  0
   10.6412   -3.5089   21.7936 C   0  0  0  0  0  0  0  0  0  0  0  0
   10.4972   -3.8968   24.1589 C   0  0  0  0  0  0  0  0  0  0  0  0
    5.9260   -8.2736   16.5517 C   0  0  0  0  0  0  0  0  0  0  0  0
    3.8816   -9.1166   17.2493 C   0  0  0  0  0  0  0  0  0  0  0  0
   10.1297   -1.6575   23.2324 C   0  0  0  0  0  0  0  0  0  0  0  0
    9.4684   -1.6929   26.7263 F   0  0  0  0  0  0  0  0  0  0  0  0
    7.7963   -7.7906   17.9837 C   0  0  0  0  0  0  0  0  0  0  0  0
   10.5884   -3.0725   16.7902 O   0  0  0  0  0  0  0  0  0  0  0  0
   10.4323   -5.3494   20.3516 C   0  0  0  0  0  0  0  0  0  0  0  0
    7.1156   -7.5454   16.8218 C   0  0  0  0  0  0  0  0  0  0  0  0
   10.3885   -4.4388   19.2773 C   0  0  0  0  0  0  0  0  0  0  0  0
    4.5160   -9.3822   15.0841 C   0  0  0  0  0  0  0  0  0  0  0  0
  1  3  4  0
  1 24  4  0
  2  6  4  0
  2 15  4  0
  3  5  4  0
  3  6  4  0
  4 21  4  0
  4 29  4  0
  5 15  4  0
  5 28  1  0
  6 16  4  0
  7 18  4  0
  7 26  4  0
  8 18  1  0
  8 19  4  0
  8 22  4  0
  9 12  4  0
  9 19  4  0
 10 12  4  0
 10 22  4  0
 11 20  4  0
 11 21  4  0
 12 23  1  0
 13 20  4  0
 13 29  4  0
 14 17  4  0
 14 28  4  0
 15 25  2  0
 16 27  4  0
 17 18  4  0
 20 27  1  0
 24 27  4  0
 26 28  4  0
M  END
$$$$

 Created by Python create_sdf_string function

 29 33  0  0  0  0  0  0  0  0999 V2000
    8.8270   -7.0288   18.4251 C   0  0  0  0  0  0  0  0  0  0  0  0
    9.1576   -4.6236   15.8860 O   0  0  0  0  0  0  0  0  0  0  0  0
    9.1509   -5.9108   17.7177 C   0  0  0  0  0  0  0  0  0  0  0  0
    3.6373   -9.5349   16.0582 N   0  0  0  0  0  0  0  0  0  0  0  0
    9.9275   -4.8001   18.0438 N   0  0  0  0  0  0  0  0  0  0  0  0
    8.5908   -5.7425   16.4412 C   0  0  0  0  0  0  0  0  0  0  0  0
   10.5993   -4.8981   21.6068 C   0  0  0  0  0  0  0  0  0  0  0  0
   10.4258   -3.0106   23.0998 C   0  0  0  0  0  0  0  0  0  0  0  0
   10.2148   -3.4364   25.4200 C   0  0  0  0  0  0  0  0  0  0  0  0
    9.7853   -1.1840   24.4927 C   0  0  0  0  0  0  0  0  0  0  0  0
    5.0276   -8.5227   17.5352 C   0  0  0  0  0  0  0  0  0  0  0  0
    9.8187   -2.0895   25.5800 C   0  0  0  0  0  0  0  0  0  0  0  0
    5.6473   -8.7216   15.3158 C   0  0  0  0  0  0  0  0  0  0  0  0
   10.7581   -3.1233   19.4720 N   0  0  0  0  0  0  0  0  0  0  0  0
    9.9571   -4.0573   16.8866 C   0  0  0  0  0  0  0  0  0  0  0  0
    7.6213   -6.5618   16.0087 C   0  0  0  0  0  0  0  0  0  0  0  0
   10.8583   -2.6527   20.7222 C   0  0  0  0  0  0  0  0  0  0  0  0
   10.6412   -3.5089   21.7936 C   0  0  0  0  0  0  0  0  0  0  0  0
   10.4972   -3.8968   24.1589 C   0  0  0  0  0  0  0  0  0  0  0  0
    5.9260   -8.2736   16.5517 C   0  0  0  0  0  0  0  0  0  0  0  0
    3.8816   -9.1166   17.2493 C   0  0  0  0  0  0  0  0  0  0  0  0
   10.1297   -1.6575   23.2324 C   0  0  0  0  0  0  0  0  0  0  0  0
    9.4684   -1.6929   26.7263 F   0  0  0  0  0  0  0  0  0  0  0  0
    7.7963   -7.7906   17.9837 C   0  0  0  0  0  0  0  0  0  0  0  0
   10.5884   -3.0725   16.7902 O   0  0  0  0  0  0  0  0  0  0  0  0
   10.4323   -5.3494   20.3516 C   0  0  0  0  0  0  0  0  0  0  0  0
    7.1156   -7.5454   16.8218 C   0  0  0  0  0  0  0  0  0  0  0  0
   10.3885   -4.4388   19.2773 C   0  0  0  0  0  0  0  0  0  0  0  0
    4.5160   -9.3822   15.0841 C   0  0  0  0  0  0  0  0  0  0  0  0
  1  3  4  0
  1 24  4  0
  2  6  4  0
  2 15  4  0
  3  5  4  0
  3  6  4  0
  4 21  4  0
  4 29  4  0
  5 15  4  0
  5 28  1  0
  6 16  4  0
  7 18  4  0
  7 26  4  0
  8 18  1  0
  8 19  4  0
  8 22  4  0
  9 12  4  0
  9 19  4  0
 10 12  4  0
 10 22  4  0
 11 20  4  0
 11 21  4  0
 12 23  1  0
 13 20  4  0
 13 29  4  0
 14 17  4  0
 14 28  4  0
 15 25  2  0
 16 27  4  0
 17 18  4  0
 20 27  1  0
 24 27  4  0
 26 28  4  0
M  END
$$$$

 Created by Python create_sdf_string function

 29 33  0  0  0  0  0  0  0  0999 V2000
    8.8270   -7.0288   18.4251 C   0  0  0  0  0  0  0  0  0  0  0  0
    9.1576   -4.6236   15.8860 O   0  0  0  0  0  0  0  0  0  0  0  0
    9.1509   -5.9108   17.7177 C   0  0  0  0  0  0  0  0  0  0  0  0
    3.6373   -9.5349   16.0582 N   0  0  0  0  0  0  0  0  0  0  0  0
    9.9275   -4.8001   18.0438 N   0  0  0  0  0  0  0  0  0  0  0  0
    8.5908   -5.7425   16.4412 C   0  0  0  0  0  0  0  0  0  0  0  0
   10.5993   -4.8981   21.6068 C   0  0  0  0  0  0  0  0  0  0  0  0
   10.4258   -3.0106   23.0998 C   0  0  0  0  0  0  0  0  0  0  0  0
   10.2148   -3.4364   25.4200 C   0  0  0  0  0  0  0  0  0  0  0  0
    9.7853   -1.1840   24.4927 C   0  0  0  0  0  0  0  0  0  0  0  0
    5.0276   -8.5227   17.5352 C   0  0  0  0  0  0  0  0  0  0  0  0
    9.8187   -2.0895   25.5800 C   0  0  0  0  0  0  0  0  0  0  0  0
    5.6473   -8.7216   15.3158 C   0  0  0  0  0  0  0  0  0  0  0  0
   10.7581   -3.1233   19.4720 N   0  0  0  0  0  0  0  0  0  0  0  0
    9.9571   -4.0573   16.8866 C   0  0  0  0  0  0  0  0  0  0  0  0
    7.6213   -6.5618   16.0087 C   0  0  0  0  0  0  0  0  0  0  0  0
   10.8583   -2.6527   20.7222 C   0  0  0  0  0  0  0  0  0  0  0  0
   10.6412   -3.5089   21.7936 C   0  0  0  0  0  0  0  0  0  0  0  0
   10.4972   -3.8968   24.1589 C   0  0  0  0  0  0  0  0  0  0  0  0
    5.9260   -8.2736   16.5517 C   0  0  0  0  0  0  0  0  0  0  0  0
    3.8816   -9.1166   17.2493 C   0  0  0  0  0  0  0  0  0  0  0  0
   10.1297   -1.6575   23.2324 C   0  0  0  0  0  0  0  0  0  0  0  0
    9.4684   -1.6929   26.7263 F   0  0  0  0  0  0  0  0  0  0  0  0
    7.7963   -7.7906   17.9837 C   0  0  0  0  0  0  0  0  0  0  0  0
   10.5884   -3.0725   16.7902 O   0  0  0  0  0  0  0  0  0  0  0  0
   10.4323   -5.3494   20.3516 C   0  0  0  0  0  0  0  0  0  0  0  0
    7.1156   -7.5454   16.8218 C   0  0  0  0  0  0  0  0  0  0  0  0
   10.3885   -4.4388   19.2773 C   0  0  0  0  0  0  0  0  0  0  0  0
    4.5160   -9.3822   15.0841 C   0  0  0  0  0  0  0  0  0  0  0  0
  1  3  4  0
  1 24  4  0
  2  6  4  0
  2 15  4  0
  3  5  4  0
  3  6  4  0
  4 21  4  0
  4 29  4  0
  5 15  4  0
  5 28  1  0
  6 16  4  0
  7 18  4  0
  7 26  4  0
  8 18  1  0
  8 19  4  0
  8 22  4  0
  9 12  4  0
  9 19  4  0
 10 12  4  0
 10 22  4  0
 11 20  4  0
 11 21  4  0
 12 23  1  0
 13 20  4  0
 13 29  4  0
 14 17  4  0
 14 28  4  0
 15 25  2  0
 16 27  4  0
 17 18  4  0
 20 27  1  0
 24 27  4  0
 26 28  4  0
M  END
$$$$

 Created by Python create_sdf_string function

 29 33  0  0  0  0  0  0  0  0999 V2000
    8.8270   -7.0288   18.4251 C   0  0  0  0  0  0  0  0  0  0  0  0
    9.1576   -4.6236   15.8860 O   0  0  0  0  0  0  0  0  0  0  0  0
    9.1509   -5.9108   17.7177 C   0  0  0  0  0  0  0  0  0  0  0  0
    3.6373   -9.5349   16.0582 N   0  0  0  0  0  0  0  0  0  0  0  0
    9.9275   -4.8001   18.0438 N   0  0  0  0  0  0  0  0  0  0  0  0
    8.5908   -5.7425   16.4412 C   0  0  0  0  0  0  0  0  0  0  0  0
   10.5993   -4.8981   21.6068 C   0  0  0  0  0  0  0  0  0  0  0  0
   10.4258   -3.0106   23.0998 C   0  0  0  0  0  0  0  0  0  0  0  0
   10.2148   -3.4364   25.4200 C   0  0  0  0  0  0  0  0  0  0  0  0
    9.7853   -1.1840   24.4927 C   0  0  0  0  0  0  0  0  0  0  0  0
    5.0276   -8.5227   17.5352 C   0  0  0  0  0  0  0  0  0  0  0  0
    9.8187   -2.0895   25.5800 C   0  0  0  0  0  0  0  0  0  0  0  0
    5.6473   -8.7216   15.3158 C   0  0  0  0  0  0  0  0  0  0  0  0
   10.7581   -3.1233   19.4720 N   0  0  0  0  0  0  0  0  0  0  0  0
    9.9571   -4.0573   16.8866 C   0  0  0  0  0  0  0  0  0  0  0  0
    7.6213   -6.5618   16.0087 C   0  0  0  0  0  0  0  0  0  0  0  0
   10.8583   -2.6527   20.7222 C   0  0  0  0  0  0  0  0  0  0  0  0
   10.6412   -3.5089   21.7936 C   0  0  0  0  0  0  0  0  0  0  0  0
   10.4972   -3.8968   24.1589 C   0  0  0  0  0  0  0  0  0  0  0  0
    5.9260   -8.2736   16.5517 C   0  0  0  0  0  0  0  0  0  0  0  0
    3.8816   -9.1166   17.2493 C   0  0  0  0  0  0  0  0  0  0  0  0
   10.1297   -1.6575   23.2324 C   0  0  0  0  0  0  0  0  0  0  0  0
    9.4684   -1.6929   26.7263 F   0  0  0  0  0  0  0  0  0  0  0  0
    7.7963   -7.7906   17.9837 C   0  0  0  0  0  0  0  0  0  0  0  0
   10.5884   -3.0725   16.7902 O   0  0  0  0  0  0  0  0  0  0  0  0
   10.4323   -5.3494   20.3516 C   0  0  0  0  0  0  0  0  0  0  0  0
    7.1156   -7.5454   16.8218 C   0  0  0  0  0  0  0  0  0  0  0  0
   10.3885   -4.4388   19.2773 C   0  0  0  0  0  0  0  0  0  0  0  0
    4.5160   -9.3822   15.0841 C   0  0  0  0  0  0  0  0  0  0  0  0
  1  3  4  0
  1 24  4  0
  2  6  4  0
  2 15  4  0
  3  5  4  0
  3  6  4  0
  4 21  4  0
  4 29  4  0
  5 15  4  0
  5 28  1  0
  6 16  4  0
  7 18  4  0
  7 26  4  0
  8 18  1  0
  8 19  4  0
  8 22  4  0
  9 12  4  0
  9 19  4  0
 10 12  4  0
 10 22  4  0
 11 20  4  0
 11 21  4  0
 12 23  1  0
 13 20  4  0
 13 29  4  0
 14 17  4  0
 14 28  4  0
 15 25  2  0
 16 27  4  0
 17 18  4  0
 20 27  1  0
 24 27  4  0
 26 28  4  0
M  END
$$$$

 Created by Python create_sdf_string function

 29 33  0  0  0  0  0  0  0  0999 V2000
    8.8270   -7.0288   18.4251 C   0  0  0  0  0  0  0  0  0  0  0  0
    9.1576   -4.6236   15.8860 O   0  0  0  0  0  0  0  0  0  0  0  0
    9.1509   -5.9108   17.7177 C   0  0  0  0  0  0  0  0  0  0  0  0
    3.6373   -9.5349   16.0582 N   0  0  0  0  0  0  0  0  0  0  0  0
    9.9275   -4.8001   18.0438 N   0  0  0  0  0  0  0  0  0  0  0  0
    8.5908   -5.7425   16.4412 C   0  0  0  0  0  0  0  0  0  0  0  0
   10.5993   -4.8981   21.6068 C   0  0  0  0  0  0  0  0  0  0  0  0
   10.4258   -3.0106   23.0998 C   0  0  0  0  0  0  0  0  0  0  0  0
   10.2148   -3.4364   25.4200 C   0  0  0  0  0  0  0  0  0  0  0  0
    9.7853   -1.1840   24.4927 C   0  0  0  0  0  0  0  0  0  0  0  0
    5.0276   -8.5227   17.5352 C   0  0  0  0  0  0  0  0  0  0  0  0
    9.8187   -2.0895   25.5800 C   0  0  0  0  0  0  0  0  0  0  0  0
    5.6473   -8.7216   15.3158 C   0  0  0  0  0  0  0  0  0  0  0  0
   10.7581   -3.1233   19.4720 N   0  0  0  0  0  0  0  0  0  0  0  0
    9.9571   -4.0573   16.8866 C   0  0  0  0  0  0  0  0  0  0  0  0
    7.6213   -6.5618   16.0087 C   0  0  0  0  0  0  0  0  0  0  0  0
   10.8583   -2.6527   20.7222 C   0  0  0  0  0  0  0  0  0  0  0  0
   10.6412   -3.5089   21.7936 C   0  0  0  0  0  0  0  0  0  0  0  0
   10.4972   -3.8968   24.1589 C   0  0  0  0  0  0  0  0  0  0  0  0
    5.9260   -8.2736   16.5517 C   0  0  0  0  0  0  0  0  0  0  0  0
    3.8816   -9.1166   17.2493 C   0  0  0  0  0  0  0  0  0  0  0  0
   10.1297   -1.6575   23.2324 C   0  0  0  0  0  0  0  0  0  0  0  0
    9.4684   -1.6929   26.7263 F   0  0  0  0  0  0  0  0  0  0  0  0
    7.7963   -7.7906   17.9837 C   0  0  0  0  0  0  0  0  0  0  0  0
   10.5884   -3.0725   16.7902 O   0  0  0  0  0  0  0  0  0  0  0  0
   10.4323   -5.3494   20.3516 C   0  0  0  0  0  0  0  0  0  0  0  0
    7.1156   -7.5454   16.8218 C   0  0  0  0  0  0  0  0  0  0  0  0
   10.3885   -4.4388   19.2773 C   0  0  0  0  0  0  0  0  0  0  0  0
    4.5160   -9.3822   15.0841 C   0  0  0  0  0  0  0  0  0  0  0  0
  1  3  4  0
  1 24  4  0
  2  6  4  0
  2 15  4  0
  3  5  4  0
  3  6  4  0
  4 21  4  0
  4 29  4  0
  5 15  4  0
  5 28  1  0
  6 16  4  0
  7 18  4  0
  7 26  4  0
  8 18  1  0
  8 19  4  0
  8 22  4  0
  9 12  4  0
  9 19  4  0
 10 12  4  0
 10 22  4  0
 11 20  4  0
 11 21  4  0
 12 23  1  0
 13 20  4  0
 13 29  4  0
 14 17  4  0
 14 28  4  0
 15 25  2  0
 16 27  4  0
 17 18  4  0
 20 27  1  0
 24 27  4  0
 26 28  4  0
M  END
$$$$

 Created by Python create_sdf_string function

 29 33  0  0  0  0  0  0  0  0999 V2000
    8.8270   -7.0288   18.4251 C   0  0  0  0  0  0  0  0  0  0  0  0
    9.1576   -4.6236   15.8860 O   0  0  0  0  0  0  0  0  0  0  0  0
    9.1509   -5.9108   17.7177 C   0  0  0  0  0  0  0  0  0  0  0  0
    3.6373   -9.5349   16.0582 N   0  0  0  0  0  0  0  0  0  0  0  0
    9.9275   -4.8001   18.0438 N   0  0  0  0  0  0  0  0  0  0  0  0
    8.5908   -5.7425   16.4412 C   0  0  0  0  0  0  0  0  0  0  0  0
   10.5993   -4.8981   21.6068 C   0  0  0  0  0  0  0  0  0  0  0  0
   10.4258   -3.0106   23.0998 C   0  0  0  0  0  0  0  0  0  0  0  0
   10.2148   -3.4364   25.4200 C   0  0  0  0  0  0  0  0  0  0  0  0
    9.7853   -1.1840   24.4927 C   0  0  0  0  0  0  0  0  0  0  0  0
    5.0276   -8.5227   17.5352 C   0  0  0  0  0  0  0  0  0  0  0  0
    9.8187   -2.0895   25.5800 C   0  0  0  0  0  0  0  0  0  0  0  0
    5.6473   -8.7216   15.3158 C   0  0  0  0  0  0  0  0  0  0  0  0
   10.7581   -3.1233   19.4720 N   0  0  0  0  0  0  0  0  0  0  0  0
    9.9571   -4.0573   16.8866 C   0  0  0  0  0  0  0  0  0  0  0  0
    7.6213   -6.5618   16.0087 C   0  0  0  0  0  0  0  0  0  0  0  0
   10.8583   -2.6527   20.7222 C   0  0  0  0  0  0  0  0  0  0  0  0
   10.6412   -3.5089   21.7936 C   0  0  0  0  0  0  0  0  0  0  0  0
   10.4972   -3.8968   24.1589 C   0  0  0  0  0  0  0  0  0  0  0  0
    5.9260   -8.2736   16.5517 C   0  0  0  0  0  0  0  0  0  0  0  0
    3.8816   -9.1166   17.2493 C   0  0  0  0  0  0  0  0  0  0  0  0
   10.1297   -1.6575   23.2324 C   0  0  0  0  0  0  0  0  0  0  0  0
    9.4684   -1.6929   26.7263 F   0  0  0  0  0  0  0  0  0  0  0  0
    7.7963   -7.7906   17.9837 C   0  0  0  0  0  0  0  0  0  0  0  0
   10.5884   -3.0725   16.7902 O   0  0  0  0  0  0  0  0  0  0  0  0
   10.4323   -5.3494   20.3516 C   0  0  0  0  0  0  0  0  0  0  0  0
    7.1156   -7.5454   16.8218 C   0  0  0  0  0  0  0  0  0  0  0  0
   10.3885   -4.4388   19.2773 C   0  0  0  0  0  0  0  0  0  0  0  0
    4.5160   -9.3822   15.0841 C   0  0  0  0  0  0  0  0  0  0  0  0
  1  3  4  0
  1 24  4  0
  2  6  4  0
  2 15  4  0
  3  5  4  0
  3  6  4  0
  4 21  4  0
  4 29  4  0
  5 15  4  0
  5 28  1  0
  6 16  4  0
  7 18  4  0
  7 26  4  0
  8 18  1  0
  8 19  4  0
  8 22  4  0
  9 12  4  0
  9 19  4  0
 10 12  4  0
 10 22  4  0
 11 20  4  0
 11 21  4  0
 12 23  1  0
 13 20  4  0
 13 29  4  0
 14 17  4  0
 14 28  4  0
 15 25  2  0
 16 27  4  0
 17 18  4  0
 20 27  1  0
 24 27  4  0
 26 28  4  0
M  END
$$$$

 Created by Python create_sdf_string function

 29 33  0  0  0  0  0  0  0  0999 V2000
    8.8270   -7.0288   18.4251 C   0  0  0  0  0  0  0  0  0  0  0  0
    9.1576   -4.6236   15.8860 O   0  0  0  0  0  0  0  0  0  0  0  0
    9.1509   -5.9108   17.7177 C   0  0  0  0  0  0  0  0  0  0  0  0
    3.6373   -9.5349   16.0582 N   0  0  0  0  0  0  0  0  0  0  0  0
    9.9275   -4.8001   18.0438 N   0  0  0  0  0  0  0  0  0  0  0  0
    8.5908   -5.7425   16.4412 C   0  0  0  0  0  0  0  0  0  0  0  0
   10.5993   -4.8981   21.6068 C   0  0  0  0  0  0  0  0  0  0  0  0
   10.4258   -3.0106   23.0998 C   0  0  0  0  0  0  0  0  0  0  0  0
   10.2148   -3.4364   25.4200 C   0  0  0  0  0  0  0  0  0  0  0  0
    9.7853   -1.1840   24.4927 C   0  0  0  0  0  0  0  0  0  0  0  0
    5.0276   -8.5227   17.5352 C   0  0  0  0  0  0  0  0  0  0  0  0
    9.8187   -2.0895   25.5800 C   0  0  0  0  0  0  0  0  0  0  0  0
    5.6473   -8.7216   15.3158 C   0  0  0  0  0  0  0  0  0  0  0  0
   10.7581   -3.1233   19.4720 N   0  0  0  0  0  0  0  0  0  0  0  0
    9.9571   -4.0573   16.8866 C   0  0  0  0  0  0  0  0  0  0  0  0
    7.6213   -6.5618   16.0087 C   0  0  0  0  0  0  0  0  0  0  0  0
   10.8583   -2.6527   20.7222 C   0  0  0  0  0  0  0  0  0  0  0  0
   10.6412   -3.5089   21.7936 C   0  0  0  0  0  0  0  0  0  0  0  0
   10.4972   -3.8968   24.1589 C   0  0  0  0  0  0  0  0  0  0  0  0
    5.9260   -8.2736   16.5517 C   0  0  0  0  0  0  0  0  0  0  0  0
    3.8816   -9.1166   17.2493 C   0  0  0  0  0  0  0  0  0  0  0  0
   10.1297   -1.6575   23.2324 C   0  0  0  0  0  0  0  0  0  0  0  0
    9.4684   -1.6929   26.7263 F   0  0  0  0  0  0  0  0  0  0  0  0
    7.7963   -7.7906   17.9837 C   0  0  0  0  0  0  0  0  0  0  0  0
   10.5884   -3.0725   16.7902 O   0  0  0  0  0  0  0  0  0  0  0  0
   10.4323   -5.3494   20.3516 C   0  0  0  0  0  0  0  0  0  0  0  0
    7.1156   -7.5454   16.8218 C   0  0  0  0  0  0  0  0  0  0  0  0
   10.3885   -4.4388   19.2773 C   0  0  0  0  0  0  0  0  0  0  0  0
    4.5160   -9.3822   15.0841 C   0  0  0  0  0  0  0  0  0  0  0  0
  1  3  4  0
  1 24  4  0
  2  6  4  0
  2 15  4  0
  3  5  4  0
  3  6  4  0
  4 21  4  0
  4 29  4  0
  5 15  4  0
  5 28  1  0
  6 16  4  0
  7 18  4  0
  7 26  4  0
  8 18  1  0
  8 19  4  0
  8 22  4  0
  9 12  4  0
  9 19  4  0
 10 12  4  0
 10 22  4  0
 11 20  4  0
 11 21  4  0
 12 23  1  0
 13 20  4  0
 13 29  4  0
 14 17  4  0
 14 28  4  0
 15 25  2  0
 16 27  4  0
 17 18  4  0
 20 27  1  0
 24 27  4  0
 26 28  4  0
M  END
$$$$

 Created by Python create_sdf_string function

 29 33  0  0  0  0  0  0  0  0999 V2000
    8.8270   -7.0288   18.4251 C   0  0  0  0  0  0  0  0  0  0  0  0
    9.1576   -4.6236   15.8860 O   0  0  0  0  0  0  0  0  0  0  0  0
    9.1509   -5.9108   17.7177 C   0  0  0  0  0  0  0  0  0  0  0  0
    3.6373   -9.5349   16.0582 N   0  0  0  0  0  0  0  0  0  0  0  0
    9.9275   -4.8001   18.0438 N   0  0  0  0  0  0  0  0  0  0  0  0
    8.5908   -5.7425   16.4412 C   0  0  0  0  0  0  0  0  0  0  0  0
   10.5993   -4.8981   21.6068 C   0  0  0  0  0  0  0  0  0  0  0  0
   10.4258   -3.0106   23.0998 C   0  0  0  0  0  0  0  0  0  0  0  0
   10.2148   -3.4364   25.4200 C   0  0  0  0  0  0  0  0  0  0  0  0
    9.7853   -1.1840   24.4927 C   0  0  0  0  0  0  0  0  0  0  0  0
    5.0276   -8.5227   17.5352 C   0  0  0  0  0  0  0  0  0  0  0  0
    9.8187   -2.0895   25.5800 C   0  0  0  0  0  0  0  0  0  0  0  0
    5.6473   -8.7216   15.3158 C   0  0  0  0  0  0  0  0  0  0  0  0
   10.7581   -3.1233   19.4720 N   0  0  0  0  0  0  0  0  0  0  0  0
    9.9571   -4.0573   16.8866 C   0  0  0  0  0  0  0  0  0  0  0  0
    7.6213   -6.5618   16.0087 C   0  0  0  0  0  0  0  0  0  0  0  0
   10.8583   -2.6527   20.7222 C   0  0  0  0  0  0  0  0  0  0  0  0
   10.6412   -3.5089   21.7936 C   0  0  0  0  0  0  0  0  0  0  0  0
   10.4972   -3.8968   24.1589 C   0  0  0  0  0  0  0  0  0  0  0  0
    5.9260   -8.2736   16.5517 C   0  0  0  0  0  0  0  0  0  0  0  0
    3.8816   -9.1166   17.2493 C   0  0  0  0  0  0  0  0  0  0  0  0
   10.1297   -1.6575   23.2324 C   0  0  0  0  0  0  0  0  0  0  0  0
    9.4684   -1.6929   26.7263 F   0  0  0  0  0  0  0  0  0  0  0  0
    7.7963   -7.7906   17.9837 C   0  0  0  0  0  0  0  0  0  0  0  0
   10.5884   -3.0725   16.7902 O   0  0  0  0  0  0  0  0  0  0  0  0
   10.4323   -5.3494   20.3516 C   0  0  0  0  0  0  0  0  0  0  0  0
    7.1156   -7.5454   16.8218 C   0  0  0  0  0  0  0  0  0  0  0  0
   10.3885   -4.4388   19.2773 C   0  0  0  0  0  0  0  0  0  0  0  0
    4.5160   -9.3822   15.0841 C   0  0  0  0  0  0  0  0  0  0  0  0
  1  3  4  0
  1 24  4  0
  2  6  4  0
  2 15  4  0
  3  5  4  0
  3  6  4  0
  4 21  4  0
  4 29  4  0
  5 15  4  0
  5 28  1  0
  6 16  4  0
  7 18  4  0
  7 26  4  0
  8 18  1  0
  8 19  4  0
  8 22  4  0
  9 12  4  0
  9 19  4  0
 10 12  4  0
 10 22  4  0
 11 20  4  0
 11 21  4  0
 12 23  1  0
 13 20  4  0
 13 29  4  0
 14 17  4  0
 14 28  4  0
 15 25  2  0
 16 27  4  0
 17 18  4  0
 20 27  1  0
 24 27  4  0
 26 28  4  0
M  END
$$$$

 Created by Python create_sdf_string function

 29 33  0  0  0  0  0  0  0  0999 V2000
    8.8270   -7.0288   18.4251 C   0  0  0  0  0  0  0  0  0  0  0  0
    9.1576   -4.6236   15.8860 O   0  0  0  0  0  0  0  0  0  0  0  0
    9.1509   -5.9108   17.7177 C   0  0  0  0  0  0  0  0  0  0  0  0
    3.6373   -9.5349   16.0582 N   0  0  0  0  0  0  0  0  0  0  0  0
    9.9275   -4.8001   18.0438 N   0  0  0  0  0  0  0  0  0  0  0  0
    8.5908   -5.7425   16.4412 C   0  0  0  0  0  0  0  0  0  0  0  0
   10.5993   -4.8981   21.6068 C   0  0  0  0  0  0  0  0  0  0  0  0
   10.4258   -3.0106   23.0998 C   0  0  0  0  0  0  0  0  0  0  0  0
   10.2148   -3.4364   25.4200 C   0  0  0  0  0  0  0  0  0  0  0  0
    9.7853   -1.1840   24.4927 C   0  0  0  0  0  0  0  0  0  0  0  0
    5.0276   -8.5227   17.5352 C   0  0  0  0  0  0  0  0  0  0  0  0
    9.8187   -2.0895   25.5800 C   0  0  0  0  0  0  0  0  0  0  0  0
    5.6473   -8.7216   15.3158 C   0  0  0  0  0  0  0  0  0  0  0  0
   10.7581   -3.1233   19.4720 N   0  0  0  0  0  0  0  0  0  0  0  0
    9.9571   -4.0573   16.8866 C   0  0  0  0  0  0  0  0  0  0  0  0
    7.6213   -6.5618   16.0087 C   0  0  0  0  0  0  0  0  0  0  0  0
   10.8583   -2.6527   20.7222 C   0  0  0  0  0  0  0  0  0  0  0  0
   10.6412   -3.5089   21.7936 C   0  0  0  0  0  0  0  0  0  0  0  0
   10.4972   -3.8968   24.1589 C   0  0  0  0  0  0  0  0  0  0  0  0
    5.9260   -8.2736   16.5517 C   0  0  0  0  0  0  0  0  0  0  0  0
    3.8816   -9.1166   17.2493 C   0  0  0  0  0  0  0  0  0  0  0  0
   10.1297   -1.6575   23.2324 C   0  0  0  0  0  0  0  0  0  0  0  0
    9.4684   -1.6929   26.7263 F   0  0  0  0  0  0  0  0  0  0  0  0
    7.7963   -7.7906   17.9837 C   0  0  0  0  0  0  0  0  0  0  0  0
   10.5884   -3.0725   16.7902 O   0  0  0  0  0  0  0  0  0  0  0  0
   10.4323   -5.3494   20.3516 C   0  0  0  0  0  0  0  0  0  0  0  0
    7.1156   -7.5454   16.8218 C   0  0  0  0  0  0  0  0  0  0  0  0
   10.3885   -4.4388   19.2773 C   0  0  0  0  0  0  0  0  0  0  0  0
    4.5160   -9.3822   15.0841 C   0  0  0  0  0  0  0  0  0  0  0  0
  1  3  4  0
  1 24  4  0
  2  6  4  0
  2 15  4  0
  3  5  4  0
  3  6  4  0
  4 21  4  0
  4 29  4  0
  5 15  4  0
  5 28  1  0
  6 16  4  0
  7 18  4  0
  7 26  4  0
  8 18  1  0
  8 19  4  0
  8 22  4  0
  9 12  4  0
  9 19  4  0
 10 12  4  0
 10 22  4  0
 11 20  4  0
 11 21  4  0
 12 23  1  0
 13 20  4  0
 13 29  4  0
 14 17  4  0
 14 28  4  0
 15 25  2  0
 16 27  4  0
 17 18  4  0
 20 27  1  0
 24 27  4  0
 26 28  4  0
M  END
$$$$

 Created by Python create_sdf_string function

 29 33  0  0  0  0  0  0  0  0999 V2000
    8.8270   -7.0288   18.4251 C   0  0  0  0  0  0  0  0  0  0  0  0
    9.1576   -4.6236   15.8860 O   0  0  0  0  0  0  0  0  0  0  0  0
    9.1509   -5.9108   17.7177 C   0  0  0  0  0  0  0  0  0  0  0  0
    3.6373   -9.5349   16.0582 N   0  0  0  0  0  0  0  0  0  0  0  0
    9.9275   -4.8001   18.0438 N   0  0  0  0  0  0  0  0  0  0  0  0
    8.5908   -5.7425   16.4412 C   0  0  0  0  0  0  0  0  0  0  0  0
   10.5993   -4.8981   21.6068 C   0  0  0  0  0  0  0  0  0  0  0  0
   10.4258   -3.0106   23.0998 C   0  0  0  0  0  0  0  0  0  0  0  0
   10.2148   -3.4364   25.4200 C   0  0  0  0  0  0  0  0  0  0  0  0
    9.7853   -1.1840   24.4927 C   0  0  0  0  0  0  0  0  0  0  0  0
    5.0276   -8.5227   17.5352 C   0  0  0  0  0  0  0  0  0  0  0  0
    9.8187   -2.0895   25.5800 C   0  0  0  0  0  0  0  0  0  0  0  0
    5.6473   -8.7216   15.3158 C   0  0  0  0  0  0  0  0  0  0  0  0
   10.7581   -3.1233   19.4720 N   0  0  0  0  0  0  0  0  0  0  0  0
    9.9571   -4.0573   16.8866 C   0  0  0  0  0  0  0  0  0  0  0  0
    7.6213   -6.5618   16.0087 C   0  0  0  0  0  0  0  0  0  0  0  0
   10.8583   -2.6527   20.7222 C   0  0  0  0  0  0  0  0  0  0  0  0
   10.6412   -3.5089   21.7936 C   0  0  0  0  0  0  0  0  0  0  0  0
   10.4972   -3.8968   24.1589 C   0  0  0  0  0  0  0  0  0  0  0  0
    5.9260   -8.2736   16.5517 C   0  0  0  0  0  0  0  0  0  0  0  0
    3.8816   -9.1166   17.2493 C   0  0  0  0  0  0  0  0  0  0  0  0
   10.1297   -1.6575   23.2324 C   0  0  0  0  0  0  0  0  0  0  0  0
    9.4684   -1.6929   26.7263 F   0  0  0  0  0  0  0  0  0  0  0  0
    7.7963   -7.7906   17.9837 C   0  0  0  0  0  0  0  0  0  0  0  0
   10.5884   -3.0725   16.7902 O   0  0  0  0  0  0  0  0  0  0  0  0
   10.4323   -5.3494   20.3516 C   0  0  0  0  0  0  0  0  0  0  0  0
    7.1156   -7.5454   16.8218 C   0  0  0  0  0  0  0  0  0  0  0  0
   10.3885   -4.4388   19.2773 C   0  0  0  0  0  0  0  0  0  0  0  0
    4.5160   -9.3822   15.0841 C   0  0  0  0  0  0  0  0  0  0  0  0
  1  3  4  0
  1 24  4  0
  2  6  4  0
  2 15  4  0
  3  5  4  0
  3  6  4  0
  4 21  4  0
  4 29  4  0
  5 15  4  0
  5 28  1  0
  6 16  4  0
  7 18  4  0
  7 26  4  0
  8 18  1  0
  8 19  4  0
  8 22  4  0
  9 12  4  0
  9 19  4  0
 10 12  4  0
 10 22  4  0
 11 20  4  0
 11 21  4  0
 12 23  1  0
 13 20  4  0
 13 29  4  0
 14 17  4  0
 14 28  4  0
 15 25  2  0
 16 27  4  0
 17 18  4  0
 20 27  1  0
 24 27  4  0
 26 28  4  0
M  END
$$$$

 Created by Python create_sdf_string function

 29 33  0  0  0  0  0  0  0  0999 V2000
    8.8270   -7.0288   18.4251 C   0  0  0  0  0  0  0  0  0  0  0  0
    9.1576   -4.6236   15.8860 O   0  0  0  0  0  0  0  0  0  0  0  0
    9.1509   -5.9108   17.7177 C   0  0  0  0  0  0  0  0  0  0  0  0
    3.6373   -9.5349   16.0582 N   0  0  0  0  0  0  0  0  0  0  0  0
    9.9275   -4.8001   18.0438 N   0  0  0  0  0  0  0  0  0  0  0  0
    8.5908   -5.7425   16.4412 C   0  0  0  0  0  0  0  0  0  0  0  0
   10.5993   -4.8981   21.6068 C   0  0  0  0  0  0  0  0  0  0  0  0
   10.4258   -3.0106   23.0998 C   0  0  0  0  0  0  0  0  0  0  0  0
   10.2148   -3.4364   25.4200 C   0  0  0  0  0  0  0  0  0  0  0  0
    9.7853   -1.1840   24.4927 C   0  0  0  0  0  0  0  0  0  0  0  0
    5.0276   -8.5227   17.5352 C   0  0  0  0  0  0  0  0  0  0  0  0
    9.8187   -2.0895   25.5800 C   0  0  0  0  0  0  0  0  0  0  0  0
    5.6473   -8.7216   15.3158 C   0  0  0  0  0  0  0  0  0  0  0  0
   10.7581   -3.1233   19.4720 N   0  0  0  0  0  0  0  0  0  0  0  0
    9.9571   -4.0573   16.8866 C   0  0  0  0  0  0  0  0  0  0  0  0
    7.6213   -6.5618   16.0087 C   0  0  0  0  0  0  0  0  0  0  0  0
   10.8583   -2.6527   20.7222 C   0  0  0  0  0  0  0  0  0  0  0  0
   10.6412   -3.5089   21.7936 C   0  0  0  0  0  0  0  0  0  0  0  0
   10.4972   -3.8968   24.1589 C   0  0  0  0  0  0  0  0  0  0  0  0
    5.9260   -8.2736   16.5517 C   0  0  0  0  0  0  0  0  0  0  0  0
    3.8816   -9.1166   17.2493 C   0  0  0  0  0  0  0  0  0  0  0  0
   10.1297   -1.6575   23.2324 C   0  0  0  0  0  0  0  0  0  0  0  0
    9.4684   -1.6929   26.7263 F   0  0  0  0  0  0  0  0  0  0  0  0
    7.7963   -7.7906   17.9837 C   0  0  0  0  0  0  0  0  0  0  0  0
   10.5884   -3.0725   16.7902 O   0  0  0  0  0  0  0  0  0  0  0  0
   10.4323   -5.3494   20.3516 C   0  0  0  0  0  0  0  0  0  0  0  0
    7.1156   -7.5454   16.8218 C   0  0  0  0  0  0  0  0  0  0  0  0
   10.3885   -4.4388   19.2773 C   0  0  0  0  0  0  0  0  0  0  0  0
    4.5160   -9.3822   15.0841 C   0  0  0  0  0  0  0  0  0  0  0  0
  1  3  4  0
  1 24  4  0
  2  6  4  0
  2 15  4  0
  3  5  4  0
  3  6  4  0
  4 21  4  0
  4 29  4  0
  5 15  4  0
  5 28  1  0
  6 16  4  0
  7 18  4  0
  7 26  4  0
  8 18  1  0
  8 19  4  0
  8 22  4  0
  9 12  4  0
  9 19  4  0
 10 12  4  0
 10 22  4  0
 11 20  4  0
 11 21  4  0
 12 23  1  0
 13 20  4  0
 13 29  4  0
 14 17  4  0
 14 28  4  0
 15 25  2  0
 16 27  4  0
 17 18  4  0
 20 27  1  0
 24 27  4  0
 26 28  4  0
M  END
